
---------- Begin Simulation Statistics ----------
simSeconds                                   0.000287                       # Number of seconds simulated (Second)
simTicks                                    286688500                       # Number of ticks simulated (Tick)
finalTick                                261711005000                       # Number of ticks from beginning of simulation (restored from checkpoints and never reset) (Tick)
simFreq                                  1000000000000                       # The number of ticks per simulated second ((Tick/Second))
hostSeconds                                     15.42                       # Real time elapsed on the host (Second)
hostTickRate                                 18590400                       # The number of ticks simulated per host second (ticks/s) ((Tick/Second))
hostMemory                                    2398492                       # Number of bytes of host memory used (Byte)
simInsts                                      4587351                       # Number of instructions simulated (Count)
simOps                                        7782764                       # Number of ops (including micro ops) simulated (Count)
hostInstRate                                   297467                       # Simulator instruction rate (inst/s) ((Count/Second))
hostOpRate                                     504673                       # Simulator op (including micro ops) rate (op/s) ((Count/Second))
system.clk_domain.clock                           333                       # Clock period in ticks (Tick)
system.cpu0.numCycles                              21                       # Number of cpu cycles simulated (Cycle)
system.cpu0.cpi                              2.100000                       # CPI: cycles per instruction (core level) ((Cycle/Count))
system.cpu0.ipc                              0.476190                       # IPC: instructions per cycle (core level) ((Count/Cycle))
system.cpu0.numWorkItemsStarted                     0                       # Number of work items this cpu started (Count)
system.cpu0.numWorkItemsCompleted                   0                       # Number of work items this cpu completed (Count)
system.cpu0.commitStats0.numInsts                  10                       # Number of instructions committed (thread level) (Count)
system.cpu0.commitStats0.numOps                    17                       # Number of ops (including micro ops) committed (thread level) (Count)
system.cpu0.commitStats0.numInstsNotNOP             0                       # Number of instructions committed excluding NOPs or prefetches (Count)
system.cpu0.commitStats0.numOpsNotNOP               0                       # Number of Ops (including micro ops) Simulated (Count)
system.cpu0.commitStats0.cpi                 2.100000                       # CPI: cycles per instruction (thread level) ((Cycle/Count))
system.cpu0.commitStats0.ipc                 0.476190                       # IPC: instructions per cycle (thread level) ((Count/Cycle))
system.cpu0.commitStats0.numMemRefs                 0                       # Number of memory references committed (Count)
system.cpu0.commitStats0.numFpInsts                 0                       # Number of float instructions (Count)
system.cpu0.commitStats0.numIntInsts               17                       # Number of integer instructions (Count)
system.cpu0.commitStats0.numLoadInsts               1                       # Number of load instructions (Count)
system.cpu0.commitStats0.numStoreInsts              3                       # Number of store instructions (Count)
system.cpu0.commitStats0.numVecInsts                0                       # Number of vector instructions (Count)
system.cpu0.commitStats0.committedInstType::No_OpClass            0      0.00%      0.00% # Class of committed instruction. (Count)
system.cpu0.commitStats0.committedInstType::IntAlu           13     76.47%     76.47% # Class of committed instruction. (Count)
system.cpu0.commitStats0.committedInstType::IntMult            0      0.00%     76.47% # Class of committed instruction. (Count)
system.cpu0.commitStats0.committedInstType::IntDiv            0      0.00%     76.47% # Class of committed instruction. (Count)
system.cpu0.commitStats0.committedInstType::FloatAdd            0      0.00%     76.47% # Class of committed instruction. (Count)
system.cpu0.commitStats0.committedInstType::FloatCmp            0      0.00%     76.47% # Class of committed instruction. (Count)
system.cpu0.commitStats0.committedInstType::FloatCvt            0      0.00%     76.47% # Class of committed instruction. (Count)
system.cpu0.commitStats0.committedInstType::FloatMult            0      0.00%     76.47% # Class of committed instruction. (Count)
system.cpu0.commitStats0.committedInstType::FloatMultAcc            0      0.00%     76.47% # Class of committed instruction. (Count)
system.cpu0.commitStats0.committedInstType::FloatDiv            0      0.00%     76.47% # Class of committed instruction. (Count)
system.cpu0.commitStats0.committedInstType::FloatMisc            0      0.00%     76.47% # Class of committed instruction. (Count)
system.cpu0.commitStats0.committedInstType::FloatSqrt            0      0.00%     76.47% # Class of committed instruction. (Count)
system.cpu0.commitStats0.committedInstType::SimdAdd            0      0.00%     76.47% # Class of committed instruction. (Count)
system.cpu0.commitStats0.committedInstType::SimdAddAcc            0      0.00%     76.47% # Class of committed instruction. (Count)
system.cpu0.commitStats0.committedInstType::SimdAlu            0      0.00%     76.47% # Class of committed instruction. (Count)
system.cpu0.commitStats0.committedInstType::SimdCmp            0      0.00%     76.47% # Class of committed instruction. (Count)
system.cpu0.commitStats0.committedInstType::SimdCvt            0      0.00%     76.47% # Class of committed instruction. (Count)
system.cpu0.commitStats0.committedInstType::SimdMisc            0      0.00%     76.47% # Class of committed instruction. (Count)
system.cpu0.commitStats0.committedInstType::SimdMult            0      0.00%     76.47% # Class of committed instruction. (Count)
system.cpu0.commitStats0.committedInstType::SimdMultAcc            0      0.00%     76.47% # Class of committed instruction. (Count)
system.cpu0.commitStats0.committedInstType::SimdMatMultAcc            0      0.00%     76.47% # Class of committed instruction. (Count)
system.cpu0.commitStats0.committedInstType::SimdShift            0      0.00%     76.47% # Class of committed instruction. (Count)
system.cpu0.commitStats0.committedInstType::SimdShiftAcc            0      0.00%     76.47% # Class of committed instruction. (Count)
system.cpu0.commitStats0.committedInstType::SimdDiv            0      0.00%     76.47% # Class of committed instruction. (Count)
system.cpu0.commitStats0.committedInstType::SimdSqrt            0      0.00%     76.47% # Class of committed instruction. (Count)
system.cpu0.commitStats0.committedInstType::SimdFloatAdd            0      0.00%     76.47% # Class of committed instruction. (Count)
system.cpu0.commitStats0.committedInstType::SimdFloatAlu            0      0.00%     76.47% # Class of committed instruction. (Count)
system.cpu0.commitStats0.committedInstType::SimdFloatCmp            0      0.00%     76.47% # Class of committed instruction. (Count)
system.cpu0.commitStats0.committedInstType::SimdFloatCvt            0      0.00%     76.47% # Class of committed instruction. (Count)
system.cpu0.commitStats0.committedInstType::SimdFloatDiv            0      0.00%     76.47% # Class of committed instruction. (Count)
system.cpu0.commitStats0.committedInstType::SimdFloatMisc            0      0.00%     76.47% # Class of committed instruction. (Count)
system.cpu0.commitStats0.committedInstType::SimdFloatMult            0      0.00%     76.47% # Class of committed instruction. (Count)
system.cpu0.commitStats0.committedInstType::SimdFloatMultAcc            0      0.00%     76.47% # Class of committed instruction. (Count)
system.cpu0.commitStats0.committedInstType::SimdFloatMatMultAcc            0      0.00%     76.47% # Class of committed instruction. (Count)
system.cpu0.commitStats0.committedInstType::SimdFloatSqrt            0      0.00%     76.47% # Class of committed instruction. (Count)
system.cpu0.commitStats0.committedInstType::SimdReduceAdd            0      0.00%     76.47% # Class of committed instruction. (Count)
system.cpu0.commitStats0.committedInstType::SimdReduceAlu            0      0.00%     76.47% # Class of committed instruction. (Count)
system.cpu0.commitStats0.committedInstType::SimdReduceCmp            0      0.00%     76.47% # Class of committed instruction. (Count)
system.cpu0.commitStats0.committedInstType::SimdFloatReduceAdd            0      0.00%     76.47% # Class of committed instruction. (Count)
system.cpu0.commitStats0.committedInstType::SimdFloatReduceCmp            0      0.00%     76.47% # Class of committed instruction. (Count)
system.cpu0.commitStats0.committedInstType::SimdAes            0      0.00%     76.47% # Class of committed instruction. (Count)
system.cpu0.commitStats0.committedInstType::SimdAesMix            0      0.00%     76.47% # Class of committed instruction. (Count)
system.cpu0.commitStats0.committedInstType::SimdSha1Hash            0      0.00%     76.47% # Class of committed instruction. (Count)
system.cpu0.commitStats0.committedInstType::SimdSha1Hash2            0      0.00%     76.47% # Class of committed instruction. (Count)
system.cpu0.commitStats0.committedInstType::SimdSha256Hash            0      0.00%     76.47% # Class of committed instruction. (Count)
system.cpu0.commitStats0.committedInstType::SimdSha256Hash2            0      0.00%     76.47% # Class of committed instruction. (Count)
system.cpu0.commitStats0.committedInstType::SimdShaSigma2            0      0.00%     76.47% # Class of committed instruction. (Count)
system.cpu0.commitStats0.committedInstType::SimdShaSigma3            0      0.00%     76.47% # Class of committed instruction. (Count)
system.cpu0.commitStats0.committedInstType::SimdPredAlu            0      0.00%     76.47% # Class of committed instruction. (Count)
system.cpu0.commitStats0.committedInstType::Matrix            0      0.00%     76.47% # Class of committed instruction. (Count)
system.cpu0.commitStats0.committedInstType::MatrixMov            0      0.00%     76.47% # Class of committed instruction. (Count)
system.cpu0.commitStats0.committedInstType::MatrixOP            0      0.00%     76.47% # Class of committed instruction. (Count)
system.cpu0.commitStats0.committedInstType::MemRead            1      5.88%     82.35% # Class of committed instruction. (Count)
system.cpu0.commitStats0.committedInstType::MemWrite            3     17.65%    100.00% # Class of committed instruction. (Count)
system.cpu0.commitStats0.committedInstType::FloatMemRead            0      0.00%    100.00% # Class of committed instruction. (Count)
system.cpu0.commitStats0.committedInstType::FloatMemWrite            0      0.00%    100.00% # Class of committed instruction. (Count)
system.cpu0.commitStats0.committedInstType::IprAccess            0      0.00%    100.00% # Class of committed instruction. (Count)
system.cpu0.commitStats0.committedInstType::InstPrefetch            0      0.00%    100.00% # Class of committed instruction. (Count)
system.cpu0.commitStats0.committedInstType::VectorUnitStrideLoad            0      0.00%    100.00% # Class of committed instruction. (Count)
system.cpu0.commitStats0.committedInstType::VectorUnitStrideStore            0      0.00%    100.00% # Class of committed instruction. (Count)
system.cpu0.commitStats0.committedInstType::VectorUnitStrideMaskLoad            0      0.00%    100.00% # Class of committed instruction. (Count)
system.cpu0.commitStats0.committedInstType::VectorUnitStrideMaskStore            0      0.00%    100.00% # Class of committed instruction. (Count)
system.cpu0.commitStats0.committedInstType::VectorStridedLoad            0      0.00%    100.00% # Class of committed instruction. (Count)
system.cpu0.commitStats0.committedInstType::VectorStridedStore            0      0.00%    100.00% # Class of committed instruction. (Count)
system.cpu0.commitStats0.committedInstType::VectorIndexedLoad            0      0.00%    100.00% # Class of committed instruction. (Count)
system.cpu0.commitStats0.committedInstType::VectorIndexedStore            0      0.00%    100.00% # Class of committed instruction. (Count)
system.cpu0.commitStats0.committedInstType::VectorUnitStrideFaultOnlyFirstLoad            0      0.00%    100.00% # Class of committed instruction. (Count)
system.cpu0.commitStats0.committedInstType::VectorWholeRegisterLoad            0      0.00%    100.00% # Class of committed instruction. (Count)
system.cpu0.commitStats0.committedInstType::VectorWholeRegisterStore            0      0.00%    100.00% # Class of committed instruction. (Count)
system.cpu0.commitStats0.committedInstType::VectorIntegerArith            0      0.00%    100.00% # Class of committed instruction. (Count)
system.cpu0.commitStats0.committedInstType::VectorFloatArith            0      0.00%    100.00% # Class of committed instruction. (Count)
system.cpu0.commitStats0.committedInstType::VectorFloatConvert            0      0.00%    100.00% # Class of committed instruction. (Count)
system.cpu0.commitStats0.committedInstType::VectorIntegerReduce            0      0.00%    100.00% # Class of committed instruction. (Count)
system.cpu0.commitStats0.committedInstType::VectorFloatReduce            0      0.00%    100.00% # Class of committed instruction. (Count)
system.cpu0.commitStats0.committedInstType::VectorMisc            0      0.00%    100.00% # Class of committed instruction. (Count)
system.cpu0.commitStats0.committedInstType::VectorIntegerExtension            0      0.00%    100.00% # Class of committed instruction. (Count)
system.cpu0.commitStats0.committedInstType::VectorConfig            0      0.00%    100.00% # Class of committed instruction. (Count)
system.cpu0.commitStats0.committedInstType::total           17                       # Class of committed instruction. (Count)
system.cpu0.commitStats0.committedControl::IsControl            2                       # Class of control type instructions committed (Count)
system.cpu0.commitStats0.committedControl::IsDirectControl            1                       # Class of control type instructions committed (Count)
system.cpu0.commitStats0.committedControl::IsIndirectControl            1                       # Class of control type instructions committed (Count)
system.cpu0.commitStats0.committedControl::IsUncondControl            2                       # Class of control type instructions committed (Count)
system.cpu0.commitStats0.committedControl::IsCall            1                       # Class of control type instructions committed (Count)
system.cpu0.commitStats0.committedControl::IsReturn            1                       # Class of control type instructions committed (Count)
system.cpu0.dcache.demandHits::cpu0.data            2                       # number of demand (read+write) hits (Count)
system.cpu0.dcache.demandHits::switch_cpus0.data       259157                       # number of demand (read+write) hits (Count)
system.cpu0.dcache.demandHits::total           259159                       # number of demand (read+write) hits (Count)
system.cpu0.dcache.overallHits::cpu0.data            2                       # number of overall hits (Count)
system.cpu0.dcache.overallHits::switch_cpus0.data       259157                       # number of overall hits (Count)
system.cpu0.dcache.overallHits::total          259159                       # number of overall hits (Count)
system.cpu0.dcache.demandMisses::cpu0.data            2                       # number of demand (read+write) misses (Count)
system.cpu0.dcache.demandMisses::switch_cpus0.data         7946                       # number of demand (read+write) misses (Count)
system.cpu0.dcache.demandMisses::total           7948                       # number of demand (read+write) misses (Count)
system.cpu0.dcache.overallMisses::cpu0.data            2                       # number of overall misses (Count)
system.cpu0.dcache.overallMisses::switch_cpus0.data         7946                       # number of overall misses (Count)
system.cpu0.dcache.overallMisses::total          7948                       # number of overall misses (Count)
system.cpu0.dcache.demandMissLatency::switch_cpus0.data    190447992                       # number of demand (read+write) miss ticks (Tick)
system.cpu0.dcache.demandMissLatency::total    190447992                       # number of demand (read+write) miss ticks (Tick)
system.cpu0.dcache.overallMissLatency::switch_cpus0.data    190447992                       # number of overall miss ticks (Tick)
system.cpu0.dcache.overallMissLatency::total    190447992                       # number of overall miss ticks (Tick)
system.cpu0.dcache.demandAccesses::cpu0.data            4                       # number of demand (read+write) accesses (Count)
system.cpu0.dcache.demandAccesses::switch_cpus0.data       267103                       # number of demand (read+write) accesses (Count)
system.cpu0.dcache.demandAccesses::total       267107                       # number of demand (read+write) accesses (Count)
system.cpu0.dcache.overallAccesses::cpu0.data            4                       # number of overall (read+write) accesses (Count)
system.cpu0.dcache.overallAccesses::switch_cpus0.data       267103                       # number of overall (read+write) accesses (Count)
system.cpu0.dcache.overallAccesses::total       267107                       # number of overall (read+write) accesses (Count)
system.cpu0.dcache.demandMissRate::cpu0.data     0.500000                       # miss rate for demand accesses (Ratio)
system.cpu0.dcache.demandMissRate::switch_cpus0.data     0.029749                       # miss rate for demand accesses (Ratio)
system.cpu0.dcache.demandMissRate::total     0.029756                       # miss rate for demand accesses (Ratio)
system.cpu0.dcache.overallMissRate::cpu0.data     0.500000                       # miss rate for overall accesses (Ratio)
system.cpu0.dcache.overallMissRate::switch_cpus0.data     0.029749                       # miss rate for overall accesses (Ratio)
system.cpu0.dcache.overallMissRate::total     0.029756                       # miss rate for overall accesses (Ratio)
system.cpu0.dcache.demandAvgMissLatency::switch_cpus0.data 23967.781525                       # average overall miss latency in ticks ((Tick/Count))
system.cpu0.dcache.demandAvgMissLatency::total 23961.750377                       # average overall miss latency in ticks ((Tick/Count))
system.cpu0.dcache.overallAvgMissLatency::switch_cpus0.data 23967.781525                       # average overall miss latency ((Tick/Count))
system.cpu0.dcache.overallAvgMissLatency::total 23961.750377                       # average overall miss latency ((Tick/Count))
system.cpu0.dcache.blockedCycles::no_mshrs         5152                       # number of cycles access was blocked (Cycle)
system.cpu0.dcache.blockedCycles::no_targets          473                       # number of cycles access was blocked (Cycle)
system.cpu0.dcache.blockedCauses::no_mshrs          114                       # number of times access was blocked (Count)
system.cpu0.dcache.blockedCauses::no_targets            4                       # number of times access was blocked (Count)
system.cpu0.dcache.avgBlocked::no_mshrs     45.192982                       # average number of cycles each access was blocked ((Cycle/Count))
system.cpu0.dcache.avgBlocked::no_targets   118.250000                       # average number of cycles each access was blocked ((Cycle/Count))
system.cpu0.dcache.writebacks::writebacks          177                       # number of writebacks (Count)
system.cpu0.dcache.writebacks::total              177                       # number of writebacks (Count)
system.cpu0.dcache.demandMshrHits::switch_cpus0.data         1434                       # number of demand (read+write) MSHR hits (Count)
system.cpu0.dcache.demandMshrHits::total         1434                       # number of demand (read+write) MSHR hits (Count)
system.cpu0.dcache.overallMshrHits::switch_cpus0.data         1434                       # number of overall MSHR hits (Count)
system.cpu0.dcache.overallMshrHits::total         1434                       # number of overall MSHR hits (Count)
system.cpu0.dcache.demandMshrMisses::switch_cpus0.data         6512                       # number of demand (read+write) MSHR misses (Count)
system.cpu0.dcache.demandMshrMisses::total         6512                       # number of demand (read+write) MSHR misses (Count)
system.cpu0.dcache.overallMshrMisses::cpu0.dcache.prefetcher         1437                       # number of overall MSHR misses (Count)
system.cpu0.dcache.overallMshrMisses::switch_cpus0.data         6512                       # number of overall MSHR misses (Count)
system.cpu0.dcache.overallMshrMisses::total         7949                       # number of overall MSHR misses (Count)
system.cpu0.dcache.demandMshrMissLatency::switch_cpus0.data    121019992                       # number of demand (read+write) MSHR miss ticks (Tick)
system.cpu0.dcache.demandMshrMissLatency::total    121019992                       # number of demand (read+write) MSHR miss ticks (Tick)
system.cpu0.dcache.overallMshrMissLatency::cpu0.dcache.prefetcher     23806849                       # number of overall MSHR miss ticks (Tick)
system.cpu0.dcache.overallMshrMissLatency::switch_cpus0.data    121019992                       # number of overall MSHR miss ticks (Tick)
system.cpu0.dcache.overallMshrMissLatency::total    144826841                       # number of overall MSHR miss ticks (Tick)
system.cpu0.dcache.demandMshrMissRate::switch_cpus0.data     0.024380                       # mshr miss ratio for demand accesses (Ratio)
system.cpu0.dcache.demandMshrMissRate::total     0.024380                       # mshr miss ratio for demand accesses (Ratio)
system.cpu0.dcache.overallMshrMissRate::cpu0.dcache.prefetcher          inf                       # mshr miss ratio for overall accesses (Ratio)
system.cpu0.dcache.overallMshrMissRate::switch_cpus0.data     0.024380                       # mshr miss ratio for overall accesses (Ratio)
system.cpu0.dcache.overallMshrMissRate::total     0.029760                       # mshr miss ratio for overall accesses (Ratio)
system.cpu0.dcache.demandAvgMshrMissLatency::switch_cpus0.data 18584.151106                       # average overall mshr miss latency ((Tick/Count))
system.cpu0.dcache.demandAvgMshrMissLatency::total 18584.151106                       # average overall mshr miss latency ((Tick/Count))
system.cpu0.dcache.overallAvgMshrMissLatency::cpu0.dcache.prefetcher 16567.048713                       # average overall mshr miss latency ((Tick/Count))
system.cpu0.dcache.overallAvgMshrMissLatency::switch_cpus0.data 18584.151106                       # average overall mshr miss latency ((Tick/Count))
system.cpu0.dcache.overallAvgMshrMissLatency::total 18219.504466                       # average overall mshr miss latency ((Tick/Count))
system.cpu0.dcache.replacements                   361                       # number of replacements (Count)
system.cpu0.dcache.HardPFReq.mshrMisses::cpu0.dcache.prefetcher         1437                       # number of HardPFReq MSHR misses (Count)
system.cpu0.dcache.HardPFReq.mshrMisses::total         1437                       # number of HardPFReq MSHR misses (Count)
system.cpu0.dcache.HardPFReq.mshrMissLatency::cpu0.dcache.prefetcher     23806849                       # number of HardPFReq MSHR miss ticks (Tick)
system.cpu0.dcache.HardPFReq.mshrMissLatency::total     23806849                       # number of HardPFReq MSHR miss ticks (Tick)
system.cpu0.dcache.HardPFReq.mshrMissRate::cpu0.dcache.prefetcher          inf                       # mshr miss rate for HardPFReq accesses (Ratio)
system.cpu0.dcache.HardPFReq.mshrMissRate::total          inf                       # mshr miss rate for HardPFReq accesses (Ratio)
system.cpu0.dcache.HardPFReq.avgMshrMissLatency::cpu0.dcache.prefetcher 16567.048713                       # average HardPFReq mshr miss latency ((Tick/Count))
system.cpu0.dcache.HardPFReq.avgMshrMissLatency::total 16567.048713                       # average HardPFReq mshr miss latency ((Tick/Count))
system.cpu0.dcache.LockedRMWReadReq.hits::switch_cpus0.data          170                       # number of LockedRMWReadReq hits (Count)
system.cpu0.dcache.LockedRMWReadReq.hits::total          170                       # number of LockedRMWReadReq hits (Count)
system.cpu0.dcache.LockedRMWReadReq.misses::switch_cpus0.data            9                       # number of LockedRMWReadReq misses (Count)
system.cpu0.dcache.LockedRMWReadReq.misses::total            9                       # number of LockedRMWReadReq misses (Count)
system.cpu0.dcache.LockedRMWReadReq.missLatency::switch_cpus0.data       514000                       # number of LockedRMWReadReq miss ticks (Tick)
system.cpu0.dcache.LockedRMWReadReq.missLatency::total       514000                       # number of LockedRMWReadReq miss ticks (Tick)
system.cpu0.dcache.LockedRMWReadReq.accesses::switch_cpus0.data          179                       # number of LockedRMWReadReq accesses(hits+misses) (Count)
system.cpu0.dcache.LockedRMWReadReq.accesses::total          179                       # number of LockedRMWReadReq accesses(hits+misses) (Count)
system.cpu0.dcache.LockedRMWReadReq.missRate::switch_cpus0.data     0.050279                       # miss rate for LockedRMWReadReq accesses (Ratio)
system.cpu0.dcache.LockedRMWReadReq.missRate::total     0.050279                       # miss rate for LockedRMWReadReq accesses (Ratio)
system.cpu0.dcache.LockedRMWReadReq.avgMissLatency::switch_cpus0.data 57111.111111                       # average LockedRMWReadReq miss latency ((Tick/Count))
system.cpu0.dcache.LockedRMWReadReq.avgMissLatency::total 57111.111111                       # average LockedRMWReadReq miss latency ((Tick/Count))
system.cpu0.dcache.LockedRMWReadReq.mshrMisses::switch_cpus0.data            9                       # number of LockedRMWReadReq MSHR misses (Count)
system.cpu0.dcache.LockedRMWReadReq.mshrMisses::total            9                       # number of LockedRMWReadReq MSHR misses (Count)
system.cpu0.dcache.LockedRMWReadReq.mshrMissLatency::switch_cpus0.data      1688000                       # number of LockedRMWReadReq MSHR miss ticks (Tick)
system.cpu0.dcache.LockedRMWReadReq.mshrMissLatency::total      1688000                       # number of LockedRMWReadReq MSHR miss ticks (Tick)
system.cpu0.dcache.LockedRMWReadReq.mshrMissRate::switch_cpus0.data     0.050279                       # mshr miss rate for LockedRMWReadReq accesses (Ratio)
system.cpu0.dcache.LockedRMWReadReq.mshrMissRate::total     0.050279                       # mshr miss rate for LockedRMWReadReq accesses (Ratio)
system.cpu0.dcache.LockedRMWReadReq.avgMshrMissLatency::switch_cpus0.data 187555.555556                       # average LockedRMWReadReq mshr miss latency ((Tick/Count))
system.cpu0.dcache.LockedRMWReadReq.avgMshrMissLatency::total 187555.555556                       # average LockedRMWReadReq mshr miss latency ((Tick/Count))
system.cpu0.dcache.LockedRMWWriteReq.hits::switch_cpus0.data          179                       # number of LockedRMWWriteReq hits (Count)
system.cpu0.dcache.LockedRMWWriteReq.hits::total          179                       # number of LockedRMWWriteReq hits (Count)
system.cpu0.dcache.LockedRMWWriteReq.accesses::switch_cpus0.data          179                       # number of LockedRMWWriteReq accesses(hits+misses) (Count)
system.cpu0.dcache.LockedRMWWriteReq.accesses::total          179                       # number of LockedRMWWriteReq accesses(hits+misses) (Count)
system.cpu0.dcache.ReadReq.hits::switch_cpus0.data       242998                       # number of ReadReq hits (Count)
system.cpu0.dcache.ReadReq.hits::total         242998                       # number of ReadReq hits (Count)
system.cpu0.dcache.ReadReq.misses::cpu0.data            1                       # number of ReadReq misses (Count)
system.cpu0.dcache.ReadReq.misses::switch_cpus0.data         2673                       # number of ReadReq misses (Count)
system.cpu0.dcache.ReadReq.misses::total         2674                       # number of ReadReq misses (Count)
system.cpu0.dcache.ReadReq.missLatency::switch_cpus0.data    145368000                       # number of ReadReq miss ticks (Tick)
system.cpu0.dcache.ReadReq.missLatency::total    145368000                       # number of ReadReq miss ticks (Tick)
system.cpu0.dcache.ReadReq.accesses::cpu0.data            1                       # number of ReadReq accesses(hits+misses) (Count)
system.cpu0.dcache.ReadReq.accesses::switch_cpus0.data       245671                       # number of ReadReq accesses(hits+misses) (Count)
system.cpu0.dcache.ReadReq.accesses::total       245672                       # number of ReadReq accesses(hits+misses) (Count)
system.cpu0.dcache.ReadReq.missRate::cpu0.data            1                       # miss rate for ReadReq accesses (Ratio)
system.cpu0.dcache.ReadReq.missRate::switch_cpus0.data     0.010880                       # miss rate for ReadReq accesses (Ratio)
system.cpu0.dcache.ReadReq.missRate::total     0.010884                       # miss rate for ReadReq accesses (Ratio)
system.cpu0.dcache.ReadReq.avgMissLatency::switch_cpus0.data 54383.838384                       # average ReadReq miss latency ((Tick/Count))
system.cpu0.dcache.ReadReq.avgMissLatency::total 54363.500374                       # average ReadReq miss latency ((Tick/Count))
system.cpu0.dcache.ReadReq.mshrHits::switch_cpus0.data         1429                       # number of ReadReq MSHR hits (Count)
system.cpu0.dcache.ReadReq.mshrHits::total         1429                       # number of ReadReq MSHR hits (Count)
system.cpu0.dcache.ReadReq.mshrMisses::switch_cpus0.data         1244                       # number of ReadReq MSHR misses (Count)
system.cpu0.dcache.ReadReq.mshrMisses::total         1244                       # number of ReadReq MSHR misses (Count)
system.cpu0.dcache.ReadReq.mshrMissLatency::switch_cpus0.data     81299500                       # number of ReadReq MSHR miss ticks (Tick)
system.cpu0.dcache.ReadReq.mshrMissLatency::total     81299500                       # number of ReadReq MSHR miss ticks (Tick)
system.cpu0.dcache.ReadReq.mshrMissRate::switch_cpus0.data     0.005064                       # mshr miss rate for ReadReq accesses (Ratio)
system.cpu0.dcache.ReadReq.mshrMissRate::total     0.005064                       # mshr miss rate for ReadReq accesses (Ratio)
system.cpu0.dcache.ReadReq.avgMshrMissLatency::switch_cpus0.data 65353.295820                       # average ReadReq mshr miss latency ((Tick/Count))
system.cpu0.dcache.ReadReq.avgMshrMissLatency::total 65353.295820                       # average ReadReq mshr miss latency ((Tick/Count))
system.cpu0.dcache.WriteReq.hits::cpu0.data            2                       # number of WriteReq hits (Count)
system.cpu0.dcache.WriteReq.hits::switch_cpus0.data        16159                       # number of WriteReq hits (Count)
system.cpu0.dcache.WriteReq.hits::total         16161                       # number of WriteReq hits (Count)
system.cpu0.dcache.WriteReq.misses::cpu0.data            1                       # number of WriteReq misses (Count)
system.cpu0.dcache.WriteReq.misses::switch_cpus0.data         5273                       # number of WriteReq misses (Count)
system.cpu0.dcache.WriteReq.misses::total         5274                       # number of WriteReq misses (Count)
system.cpu0.dcache.WriteReq.missLatency::switch_cpus0.data     45079992                       # number of WriteReq miss ticks (Tick)
system.cpu0.dcache.WriteReq.missLatency::total     45079992                       # number of WriteReq miss ticks (Tick)
system.cpu0.dcache.WriteReq.accesses::cpu0.data            3                       # number of WriteReq accesses(hits+misses) (Count)
system.cpu0.dcache.WriteReq.accesses::switch_cpus0.data        21432                       # number of WriteReq accesses(hits+misses) (Count)
system.cpu0.dcache.WriteReq.accesses::total        21435                       # number of WriteReq accesses(hits+misses) (Count)
system.cpu0.dcache.WriteReq.missRate::cpu0.data     0.333333                       # miss rate for WriteReq accesses (Ratio)
system.cpu0.dcache.WriteReq.missRate::switch_cpus0.data     0.246034                       # miss rate for WriteReq accesses (Ratio)
system.cpu0.dcache.WriteReq.missRate::total     0.246046                       # miss rate for WriteReq accesses (Ratio)
system.cpu0.dcache.WriteReq.avgMissLatency::switch_cpus0.data  8549.211455                       # average WriteReq miss latency ((Tick/Count))
system.cpu0.dcache.WriteReq.avgMissLatency::total  8547.590444                       # average WriteReq miss latency ((Tick/Count))
system.cpu0.dcache.WriteReq.mshrHits::switch_cpus0.data            5                       # number of WriteReq MSHR hits (Count)
system.cpu0.dcache.WriteReq.mshrHits::total            5                       # number of WriteReq MSHR hits (Count)
system.cpu0.dcache.WriteReq.mshrMisses::switch_cpus0.data         5268                       # number of WriteReq MSHR misses (Count)
system.cpu0.dcache.WriteReq.mshrMisses::total         5268                       # number of WriteReq MSHR misses (Count)
system.cpu0.dcache.WriteReq.mshrMissLatency::switch_cpus0.data     39720492                       # number of WriteReq MSHR miss ticks (Tick)
system.cpu0.dcache.WriteReq.mshrMissLatency::total     39720492                       # number of WriteReq MSHR miss ticks (Tick)
system.cpu0.dcache.WriteReq.mshrMissRate::switch_cpus0.data     0.245801                       # mshr miss rate for WriteReq accesses (Ratio)
system.cpu0.dcache.WriteReq.mshrMissRate::total     0.245766                       # mshr miss rate for WriteReq accesses (Ratio)
system.cpu0.dcache.WriteReq.avgMshrMissLatency::switch_cpus0.data  7539.956720                       # average WriteReq mshr miss latency ((Tick/Count))
system.cpu0.dcache.WriteReq.avgMshrMissLatency::total  7539.956720                       # average WriteReq mshr miss latency ((Tick/Count))
system.cpu0.dcache.power_state.pwrStateResidencyTicks::UNDEFINED 261711005000                       # Cumulative time (in ticks) in various power states (Tick)
system.cpu0.dcache.prefetcher.demandMshrMisses         6512                       # demands not covered by prefetchs (Count)
system.cpu0.dcache.prefetcher.pfIssued           9793                       # number of hwpf issued (Count)
system.cpu0.dcache.prefetcher.pfUnused            978                       # number of HardPF blocks evicted w/o reference (Count)
system.cpu0.dcache.prefetcher.pfUseful            629                       # number of useful prefetch (Count)
system.cpu0.dcache.prefetcher.pfUsefulButMiss          390                       # number of hit on prefetch but cache block is not in an usable state (Count)
system.cpu0.dcache.prefetcher.accuracy       0.064230                       # accuracy of the prefetcher (Count)
system.cpu0.dcache.prefetcher.coverage       0.088083                       # coverage brought by this prefetcher (Count)
system.cpu0.dcache.prefetcher.pfHitInCache         8282                       # number of prefetches hitting in cache (Count)
system.cpu0.dcache.prefetcher.pfHitInMSHR           74                       # number of prefetches hitting in a MSHR (Count)
system.cpu0.dcache.prefetcher.pfHitInWB             0                       # number of prefetches hit in the Write Buffer (Count)
system.cpu0.dcache.prefetcher.pfLate             8356                       # number of late prefetches (hitting in cache, MSHR or WB) (Count)
system.cpu0.dcache.prefetcher.pfIdentified        10138                       # number of prefetch candidates identified (Count)
system.cpu0.dcache.prefetcher.pfBufferHit          254                       # number of redundant prefetches already in prefetch queue (Count)
system.cpu0.dcache.prefetcher.pfInCache             0                       # number of redundant prefetches already in cache/mshr dropped (Count)
system.cpu0.dcache.prefetcher.pfRemovedDemand           13                       # number of prefetches dropped due to a demand for the same address (Count)
system.cpu0.dcache.prefetcher.pfRemovedFull            0                       # number of prefetches dropped due to prefetch queue size (Count)
system.cpu0.dcache.prefetcher.pfSpanPage           98                       # number of prefetches that crossed the page (Count)
system.cpu0.dcache.prefetcher.pfUsefulSpanPage            0                       # number of prefetches that is useful and crossed the page (Count)
system.cpu0.dcache.prefetcher.power_state.pwrStateResidencyTicks::UNDEFINED 261711005000                       # Cumulative time (in ticks) in various power states (Tick)
system.cpu0.dcache.tags.tagsInUse          597.322853                       # Average ticks per tags in use ((Tick/Count))
system.cpu0.dcache.tags.totalRefs              267481                       # Total number of references to valid blocks. (Count)
system.cpu0.dcache.tags.sampledRefs              6659                       # Sample count of references to valid blocks. (Count)
system.cpu0.dcache.tags.avgRefs             40.168344                       # Average number of references to valid blocks. ((Count/Count))
system.cpu0.dcache.tags.warmupTick       261424317000                       # The tick when the warmup percentage was hit. (Tick)
system.cpu0.dcache.tags.occupancies::cpu0.data     1.140489                       # Average occupied blocks per tick, per requestor ((Count/Tick))
system.cpu0.dcache.tags.occupancies::cpu0.dcache.prefetcher    78.216978                       # Average occupied blocks per tick, per requestor ((Count/Tick))
system.cpu0.dcache.tags.occupancies::switch_cpus0.data   517.965387                       # Average occupied blocks per tick, per requestor ((Count/Tick))
system.cpu0.dcache.tags.avgOccs::cpu0.data     0.001114                       # Average percentage of cache occupancy ((Ratio/Tick))
system.cpu0.dcache.tags.avgOccs::cpu0.dcache.prefetcher     0.076384                       # Average percentage of cache occupancy ((Ratio/Tick))
system.cpu0.dcache.tags.avgOccs::switch_cpus0.data     0.505826                       # Average percentage of cache occupancy ((Ratio/Tick))
system.cpu0.dcache.tags.avgOccs::total       0.583323                       # Average percentage of cache occupancy ((Ratio/Tick))
system.cpu0.dcache.tags.occupanciesTaskId::1022          131                       # Occupied blocks per task id (Count)
system.cpu0.dcache.tags.occupanciesTaskId::1024          805                       # Occupied blocks per task id (Count)
system.cpu0.dcache.tags.ageTaskId_1022::0           16                       # Occupied blocks per task id, per block age (Count)
system.cpu0.dcache.tags.ageTaskId_1022::1           44                       # Occupied blocks per task id, per block age (Count)
system.cpu0.dcache.tags.ageTaskId_1022::2           71                       # Occupied blocks per task id, per block age (Count)
system.cpu0.dcache.tags.ageTaskId_1024::0           83                       # Occupied blocks per task id, per block age (Count)
system.cpu0.dcache.tags.ageTaskId_1024::1          395                       # Occupied blocks per task id, per block age (Count)
system.cpu0.dcache.tags.ageTaskId_1024::2          327                       # Occupied blocks per task id, per block age (Count)
system.cpu0.dcache.tags.ratioOccsTaskId::1022     0.127930                       # Ratio of occupied blocks and all blocks, per task id (Ratio)
system.cpu0.dcache.tags.ratioOccsTaskId::1024     0.786133                       # Ratio of occupied blocks and all blocks, per task id (Ratio)
system.cpu0.dcache.tags.tagAccesses           1076519                       # Number of tag accesses (Count)
system.cpu0.dcache.tags.dataAccesses          1076519                       # Number of data accesses (Count)
system.cpu0.dcache.tags.power_state.pwrStateResidencyTicks::UNDEFINED 261711005000                       # Cumulative time (in ticks) in various power states (Tick)
system.cpu0.dtb_walker_cache.blockedCycles::no_mshrs            0                       # number of cycles access was blocked (Cycle)
system.cpu0.dtb_walker_cache.blockedCycles::no_targets            0                       # number of cycles access was blocked (Cycle)
system.cpu0.dtb_walker_cache.blockedCauses::no_mshrs            0                       # number of times access was blocked (Count)
system.cpu0.dtb_walker_cache.blockedCauses::no_targets            0                       # number of times access was blocked (Count)
system.cpu0.dtb_walker_cache.avgBlocked::no_mshrs          nan                       # average number of cycles each access was blocked ((Cycle/Count))
system.cpu0.dtb_walker_cache.avgBlocked::no_targets          nan                       # average number of cycles each access was blocked ((Cycle/Count))
system.cpu0.dtb_walker_cache.replacements            0                       # number of replacements (Count)
system.cpu0.dtb_walker_cache.power_state.pwrStateResidencyTicks::UNDEFINED 261711005000                       # Cumulative time (in ticks) in various power states (Tick)
system.cpu0.dtb_walker_cache.tags.tagsInUse            0                       # Average ticks per tags in use ((Tick/Count))
system.cpu0.dtb_walker_cache.tags.totalRefs            0                       # Total number of references to valid blocks. (Count)
system.cpu0.dtb_walker_cache.tags.sampledRefs            0                       # Sample count of references to valid blocks. (Count)
system.cpu0.dtb_walker_cache.tags.avgRefs          nan                       # Average number of references to valid blocks. ((Count/Count))
system.cpu0.dtb_walker_cache.tags.warmupTick            0                       # The tick when the warmup percentage was hit. (Tick)
system.cpu0.dtb_walker_cache.tags.tagAccesses            0                       # Number of tag accesses (Count)
system.cpu0.dtb_walker_cache.tags.dataAccesses            0                       # Number of data accesses (Count)
system.cpu0.dtb_walker_cache.tags.power_state.pwrStateResidencyTicks::UNDEFINED 261711005000                       # Cumulative time (in ticks) in various power states (Tick)
system.cpu0.exec_context.thread_0.numMatAluAccesses            0                       # Number of matrix alu accesses (Count)
system.cpu0.exec_context.thread_0.numCallsReturns            2                       # Number of times a function call or return occured (Count)
system.cpu0.exec_context.thread_0.numMatInsts            0                       # Number of matrix instructions (Count)
system.cpu0.exec_context.thread_0.numIdleCycles            0                       # Number of idle cycles (Cycle)
system.cpu0.exec_context.thread_0.numBusyCycles           21                       # Number of busy cycles (Cycle)
system.cpu0.exec_context.thread_0.notIdleFraction            1                       # Percentage of non-idle cycles (Ratio)
system.cpu0.exec_context.thread_0.idleFraction            0                       # Percentage of idle cycles (Ratio)
system.cpu0.executeStats0.numInsts                  0                       # Number of executed instructions (Count)
system.cpu0.executeStats0.numNop                    0                       # Number of nop insts executed (Count)
system.cpu0.executeStats0.numBranches               0                       # Number of branches executed (Count)
system.cpu0.executeStats0.numLoadInsts              0                       # Number of load instructions executed (Count)
system.cpu0.executeStats0.numStoreInsts             4                       # Number of stores executed (Count)
system.cpu0.executeStats0.instRate                  0                       # Inst execution rate ((Count/Cycle))
system.cpu0.executeStats0.numFpRegWrites            0                       # Number of times the floating registers were written (Count)
system.cpu0.executeStats0.numIntAluAccesses           17                       # Number of integer alu accesses (Count)
system.cpu0.executeStats0.numIntRegReads           20                       # Number of times the integer registers were read (Count)
system.cpu0.executeStats0.numIntRegWrites           12                       # Number of times the integer registers were written (Count)
system.cpu0.executeStats0.numMemRefs                4                       # Number of memory refs (Count)
system.cpu0.executeStats0.numMiscRegReads            8                       # Number of times the Misc registers were read (Count)
system.cpu0.executeStats0.numVecAluAccesses            0                       # Number of vector alu accesses (Count)
system.cpu0.executeStats0.numDiscardedOps            0                       # Number of ops (including micro ops) which were discarded before commit (Count)
system.cpu0.fetchStats0.numInsts                   10                       # Number of instructions fetched (thread level) (Count)
system.cpu0.fetchStats0.numOps                     17                       # Number of ops (including micro ops) fetched (thread level) (Count)
system.cpu0.fetchStats0.fetchRate            0.476190                       # Number of inst fetches per cycle ((Count/Cycle))
system.cpu0.fetchStats0.numBranches                 2                       # Number of branches fetched (Count)
system.cpu0.fetchStats0.branchRate           0.095238                       # Number of branch fetches per cycle (Ratio)
system.cpu0.fetchStats0.numFetchSuspends            0                       # Number of times Execute suspended instruction fetching (Count)
system.cpu0.icache.demandHits::cpu0.inst           12                       # number of demand (read+write) hits (Count)
system.cpu0.icache.demandHits::switch_cpus0.inst        92078                       # number of demand (read+write) hits (Count)
system.cpu0.icache.demandHits::total            92090                       # number of demand (read+write) hits (Count)
system.cpu0.icache.overallHits::cpu0.inst           12                       # number of overall hits (Count)
system.cpu0.icache.overallHits::switch_cpus0.inst        92078                       # number of overall hits (Count)
system.cpu0.icache.overallHits::total           92090                       # number of overall hits (Count)
system.cpu0.icache.demandMisses::cpu0.inst            2                       # number of demand (read+write) misses (Count)
system.cpu0.icache.demandMisses::switch_cpus0.inst         1486                       # number of demand (read+write) misses (Count)
system.cpu0.icache.demandMisses::total           1488                       # number of demand (read+write) misses (Count)
system.cpu0.icache.overallMisses::cpu0.inst            2                       # number of overall misses (Count)
system.cpu0.icache.overallMisses::switch_cpus0.inst         1486                       # number of overall misses (Count)
system.cpu0.icache.overallMisses::total          1488                       # number of overall misses (Count)
system.cpu0.icache.demandMissLatency::switch_cpus0.inst    107958000                       # number of demand (read+write) miss ticks (Tick)
system.cpu0.icache.demandMissLatency::total    107958000                       # number of demand (read+write) miss ticks (Tick)
system.cpu0.icache.overallMissLatency::switch_cpus0.inst    107958000                       # number of overall miss ticks (Tick)
system.cpu0.icache.overallMissLatency::total    107958000                       # number of overall miss ticks (Tick)
system.cpu0.icache.demandAccesses::cpu0.inst           14                       # number of demand (read+write) accesses (Count)
system.cpu0.icache.demandAccesses::switch_cpus0.inst        93564                       # number of demand (read+write) accesses (Count)
system.cpu0.icache.demandAccesses::total        93578                       # number of demand (read+write) accesses (Count)
system.cpu0.icache.overallAccesses::cpu0.inst           14                       # number of overall (read+write) accesses (Count)
system.cpu0.icache.overallAccesses::switch_cpus0.inst        93564                       # number of overall (read+write) accesses (Count)
system.cpu0.icache.overallAccesses::total        93578                       # number of overall (read+write) accesses (Count)
system.cpu0.icache.demandMissRate::cpu0.inst     0.142857                       # miss rate for demand accesses (Ratio)
system.cpu0.icache.demandMissRate::switch_cpus0.inst     0.015882                       # miss rate for demand accesses (Ratio)
system.cpu0.icache.demandMissRate::total     0.015901                       # miss rate for demand accesses (Ratio)
system.cpu0.icache.overallMissRate::cpu0.inst     0.142857                       # miss rate for overall accesses (Ratio)
system.cpu0.icache.overallMissRate::switch_cpus0.inst     0.015882                       # miss rate for overall accesses (Ratio)
system.cpu0.icache.overallMissRate::total     0.015901                       # miss rate for overall accesses (Ratio)
system.cpu0.icache.demandAvgMissLatency::switch_cpus0.inst 72650.067295                       # average overall miss latency in ticks ((Tick/Count))
system.cpu0.icache.demandAvgMissLatency::total 72552.419355                       # average overall miss latency in ticks ((Tick/Count))
system.cpu0.icache.overallAvgMissLatency::switch_cpus0.inst 72650.067295                       # average overall miss latency ((Tick/Count))
system.cpu0.icache.overallAvgMissLatency::total 72552.419355                       # average overall miss latency ((Tick/Count))
system.cpu0.icache.blockedCycles::no_mshrs          509                       # number of cycles access was blocked (Cycle)
system.cpu0.icache.blockedCycles::no_targets            0                       # number of cycles access was blocked (Cycle)
system.cpu0.icache.blockedCauses::no_mshrs            8                       # number of times access was blocked (Count)
system.cpu0.icache.blockedCauses::no_targets            0                       # number of times access was blocked (Count)
system.cpu0.icache.avgBlocked::no_mshrs     63.625000                       # average number of cycles each access was blocked ((Cycle/Count))
system.cpu0.icache.avgBlocked::no_targets          nan                       # average number of cycles each access was blocked ((Cycle/Count))
system.cpu0.icache.writebacks::writebacks          777                       # number of writebacks (Count)
system.cpu0.icache.writebacks::total              777                       # number of writebacks (Count)
system.cpu0.icache.demandMshrHits::switch_cpus0.inst          199                       # number of demand (read+write) MSHR hits (Count)
system.cpu0.icache.demandMshrHits::total          199                       # number of demand (read+write) MSHR hits (Count)
system.cpu0.icache.overallMshrHits::switch_cpus0.inst          199                       # number of overall MSHR hits (Count)
system.cpu0.icache.overallMshrHits::total          199                       # number of overall MSHR hits (Count)
system.cpu0.icache.demandMshrMisses::switch_cpus0.inst         1287                       # number of demand (read+write) MSHR misses (Count)
system.cpu0.icache.demandMshrMisses::total         1287                       # number of demand (read+write) MSHR misses (Count)
system.cpu0.icache.overallMshrMisses::switch_cpus0.inst         1287                       # number of overall MSHR misses (Count)
system.cpu0.icache.overallMshrMisses::total         1287                       # number of overall MSHR misses (Count)
system.cpu0.icache.demandMshrMissLatency::switch_cpus0.inst     94141000                       # number of demand (read+write) MSHR miss ticks (Tick)
system.cpu0.icache.demandMshrMissLatency::total     94141000                       # number of demand (read+write) MSHR miss ticks (Tick)
system.cpu0.icache.overallMshrMissLatency::switch_cpus0.inst     94141000                       # number of overall MSHR miss ticks (Tick)
system.cpu0.icache.overallMshrMissLatency::total     94141000                       # number of overall MSHR miss ticks (Tick)
system.cpu0.icache.demandMshrMissRate::switch_cpus0.inst     0.013755                       # mshr miss ratio for demand accesses (Ratio)
system.cpu0.icache.demandMshrMissRate::total     0.013753                       # mshr miss ratio for demand accesses (Ratio)
system.cpu0.icache.overallMshrMissRate::switch_cpus0.inst     0.013755                       # mshr miss ratio for overall accesses (Ratio)
system.cpu0.icache.overallMshrMissRate::total     0.013753                       # mshr miss ratio for overall accesses (Ratio)
system.cpu0.icache.demandAvgMshrMissLatency::switch_cpus0.inst 73147.630148                       # average overall mshr miss latency ((Tick/Count))
system.cpu0.icache.demandAvgMshrMissLatency::total 73147.630148                       # average overall mshr miss latency ((Tick/Count))
system.cpu0.icache.overallAvgMshrMissLatency::switch_cpus0.inst 73147.630148                       # average overall mshr miss latency ((Tick/Count))
system.cpu0.icache.overallAvgMshrMissLatency::total 73147.630148                       # average overall mshr miss latency ((Tick/Count))
system.cpu0.icache.replacements                   777                       # number of replacements (Count)
system.cpu0.icache.ReadReq.hits::cpu0.inst           12                       # number of ReadReq hits (Count)
system.cpu0.icache.ReadReq.hits::switch_cpus0.inst        92078                       # number of ReadReq hits (Count)
system.cpu0.icache.ReadReq.hits::total          92090                       # number of ReadReq hits (Count)
system.cpu0.icache.ReadReq.misses::cpu0.inst            2                       # number of ReadReq misses (Count)
system.cpu0.icache.ReadReq.misses::switch_cpus0.inst         1486                       # number of ReadReq misses (Count)
system.cpu0.icache.ReadReq.misses::total         1488                       # number of ReadReq misses (Count)
system.cpu0.icache.ReadReq.missLatency::switch_cpus0.inst    107958000                       # number of ReadReq miss ticks (Tick)
system.cpu0.icache.ReadReq.missLatency::total    107958000                       # number of ReadReq miss ticks (Tick)
system.cpu0.icache.ReadReq.accesses::cpu0.inst           14                       # number of ReadReq accesses(hits+misses) (Count)
system.cpu0.icache.ReadReq.accesses::switch_cpus0.inst        93564                       # number of ReadReq accesses(hits+misses) (Count)
system.cpu0.icache.ReadReq.accesses::total        93578                       # number of ReadReq accesses(hits+misses) (Count)
system.cpu0.icache.ReadReq.missRate::cpu0.inst     0.142857                       # miss rate for ReadReq accesses (Ratio)
system.cpu0.icache.ReadReq.missRate::switch_cpus0.inst     0.015882                       # miss rate for ReadReq accesses (Ratio)
system.cpu0.icache.ReadReq.missRate::total     0.015901                       # miss rate for ReadReq accesses (Ratio)
system.cpu0.icache.ReadReq.avgMissLatency::switch_cpus0.inst 72650.067295                       # average ReadReq miss latency ((Tick/Count))
system.cpu0.icache.ReadReq.avgMissLatency::total 72552.419355                       # average ReadReq miss latency ((Tick/Count))
system.cpu0.icache.ReadReq.mshrHits::switch_cpus0.inst          199                       # number of ReadReq MSHR hits (Count)
system.cpu0.icache.ReadReq.mshrHits::total          199                       # number of ReadReq MSHR hits (Count)
system.cpu0.icache.ReadReq.mshrMisses::switch_cpus0.inst         1287                       # number of ReadReq MSHR misses (Count)
system.cpu0.icache.ReadReq.mshrMisses::total         1287                       # number of ReadReq MSHR misses (Count)
system.cpu0.icache.ReadReq.mshrMissLatency::switch_cpus0.inst     94141000                       # number of ReadReq MSHR miss ticks (Tick)
system.cpu0.icache.ReadReq.mshrMissLatency::total     94141000                       # number of ReadReq MSHR miss ticks (Tick)
system.cpu0.icache.ReadReq.mshrMissRate::switch_cpus0.inst     0.013755                       # mshr miss rate for ReadReq accesses (Ratio)
system.cpu0.icache.ReadReq.mshrMissRate::total     0.013753                       # mshr miss rate for ReadReq accesses (Ratio)
system.cpu0.icache.ReadReq.avgMshrMissLatency::switch_cpus0.inst 73147.630148                       # average ReadReq mshr miss latency ((Tick/Count))
system.cpu0.icache.ReadReq.avgMshrMissLatency::total 73147.630148                       # average ReadReq mshr miss latency ((Tick/Count))
system.cpu0.icache.power_state.pwrStateResidencyTicks::UNDEFINED 261711005000                       # Cumulative time (in ticks) in various power states (Tick)
system.cpu0.icache.tags.tagsInUse          369.857443                       # Average ticks per tags in use ((Tick/Count))
system.cpu0.icache.tags.totalRefs               93378                       # Total number of references to valid blocks. (Count)
system.cpu0.icache.tags.sampledRefs              1288                       # Sample count of references to valid blocks. (Count)
system.cpu0.icache.tags.avgRefs             72.498447                       # Average number of references to valid blocks. ((Count/Count))
system.cpu0.icache.tags.warmupTick       261424317000                       # The tick when the warmup percentage was hit. (Tick)
system.cpu0.icache.tags.occupancies::cpu0.inst     1.739630                       # Average occupied blocks per tick, per requestor ((Count/Tick))
system.cpu0.icache.tags.occupancies::switch_cpus0.inst   368.117813                       # Average occupied blocks per tick, per requestor ((Count/Tick))
system.cpu0.icache.tags.avgOccs::cpu0.inst     0.003398                       # Average percentage of cache occupancy ((Ratio/Tick))
system.cpu0.icache.tags.avgOccs::switch_cpus0.inst     0.718980                       # Average percentage of cache occupancy ((Ratio/Tick))
system.cpu0.icache.tags.avgOccs::total       0.722378                       # Average percentage of cache occupancy ((Ratio/Tick))
system.cpu0.icache.tags.occupanciesTaskId::1024          507                       # Occupied blocks per task id (Count)
system.cpu0.icache.tags.ageTaskId_1024::0           96                       # Occupied blocks per task id, per block age (Count)
system.cpu0.icache.tags.ageTaskId_1024::1          364                       # Occupied blocks per task id, per block age (Count)
system.cpu0.icache.tags.ageTaskId_1024::2           47                       # Occupied blocks per task id, per block age (Count)
system.cpu0.icache.tags.ratioOccsTaskId::1024     0.990234                       # Ratio of occupied blocks and all blocks, per task id (Ratio)
system.cpu0.icache.tags.tagAccesses            375600                       # Number of tag accesses (Count)
system.cpu0.icache.tags.dataAccesses           375600                       # Number of data accesses (Count)
system.cpu0.icache.tags.power_state.pwrStateResidencyTicks::UNDEFINED 261711005000                       # Cumulative time (in ticks) in various power states (Tick)
system.cpu0.interrupts.clk_domain.clock          8000                       # Clock period in ticks (Tick)
system.cpu0.itb_walker_cache.blockedCycles::no_mshrs            0                       # number of cycles access was blocked (Cycle)
system.cpu0.itb_walker_cache.blockedCycles::no_targets            0                       # number of cycles access was blocked (Cycle)
system.cpu0.itb_walker_cache.blockedCauses::no_mshrs            0                       # number of times access was blocked (Count)
system.cpu0.itb_walker_cache.blockedCauses::no_targets            0                       # number of times access was blocked (Count)
system.cpu0.itb_walker_cache.avgBlocked::no_mshrs          nan                       # average number of cycles each access was blocked ((Cycle/Count))
system.cpu0.itb_walker_cache.avgBlocked::no_targets          nan                       # average number of cycles each access was blocked ((Cycle/Count))
system.cpu0.itb_walker_cache.replacements            0                       # number of replacements (Count)
system.cpu0.itb_walker_cache.power_state.pwrStateResidencyTicks::UNDEFINED 261711005000                       # Cumulative time (in ticks) in various power states (Tick)
system.cpu0.itb_walker_cache.tags.tagsInUse            0                       # Average ticks per tags in use ((Tick/Count))
system.cpu0.itb_walker_cache.tags.totalRefs            0                       # Total number of references to valid blocks. (Count)
system.cpu0.itb_walker_cache.tags.sampledRefs            0                       # Sample count of references to valid blocks. (Count)
system.cpu0.itb_walker_cache.tags.avgRefs          nan                       # Average number of references to valid blocks. ((Count/Count))
system.cpu0.itb_walker_cache.tags.warmupTick            0                       # The tick when the warmup percentage was hit. (Tick)
system.cpu0.itb_walker_cache.tags.tagAccesses            0                       # Number of tag accesses (Count)
system.cpu0.itb_walker_cache.tags.dataAccesses            0                       # Number of data accesses (Count)
system.cpu0.itb_walker_cache.tags.power_state.pwrStateResidencyTicks::UNDEFINED 261711005000                       # Cumulative time (in ticks) in various power states (Tick)
system.cpu0.mmu.dtb.rdAccesses                      1                       # TLB accesses on read requests (Count)
system.cpu0.mmu.dtb.wrAccesses                      3                       # TLB accesses on write requests (Count)
system.cpu0.mmu.dtb.rdMisses                        0                       # TLB misses on read requests (Count)
system.cpu0.mmu.dtb.wrMisses                        0                       # TLB misses on write requests (Count)
system.cpu0.mmu.dtb.walker.power_state.pwrStateResidencyTicks::UNDEFINED 261711005000                       # Cumulative time (in ticks) in various power states (Tick)
system.cpu0.mmu.itb.rdAccesses                      0                       # TLB accesses on read requests (Count)
system.cpu0.mmu.itb.wrAccesses                     14                       # TLB accesses on write requests (Count)
system.cpu0.mmu.itb.rdMisses                        0                       # TLB misses on read requests (Count)
system.cpu0.mmu.itb.wrMisses                        0                       # TLB misses on write requests (Count)
system.cpu0.mmu.itb.walker.power_state.pwrStateResidencyTicks::UNDEFINED 261711005000                       # Cumulative time (in ticks) in various power states (Tick)
system.cpu0.power_state.numTransitions              1                       # Number of power state transitions (Count)
system.cpu0.power_state.pwrStateResidencyTicks::ON 261424327000                       # Cumulative time (in ticks) in various power states (Tick)
system.cpu0.power_state.pwrStateResidencyTicks::OFF    286678000                       # Cumulative time (in ticks) in various power states (Tick)
system.cpu0.thread_0.numInsts                       0                       # Number of Instructions committed (Count)
system.cpu0.thread_0.numOps                         0                       # Number of Ops committed (Count)
system.cpu0.thread_0.numMemRefs                     0                       # Number of Memory References (Count)
system.cpu0.workload.numSyscalls                   29                       # Number of system calls (Count)
system.cpu1.numCycles                               0                       # Number of cpu cycles simulated (Cycle)
system.cpu1.cpi                                   nan                       # CPI: cycles per instruction (core level) ((Cycle/Count))
system.cpu1.ipc                                   nan                       # IPC: instructions per cycle (core level) ((Count/Cycle))
system.cpu1.numWorkItemsStarted                     0                       # Number of work items this cpu started (Count)
system.cpu1.numWorkItemsCompleted                   0                       # Number of work items this cpu completed (Count)
system.cpu1.commitStats0.numOps                     0                       # Number of ops (including micro ops) committed (thread level) (Count)
system.cpu1.commitStats0.numInstsNotNOP             0                       # Number of instructions committed excluding NOPs or prefetches (Count)
system.cpu1.commitStats0.numOpsNotNOP               0                       # Number of Ops (including micro ops) Simulated (Count)
system.cpu1.commitStats0.cpi                      nan                       # CPI: cycles per instruction (thread level) ((Cycle/Count))
system.cpu1.commitStats0.ipc                      nan                       # IPC: instructions per cycle (thread level) ((Count/Cycle))
system.cpu1.commitStats0.numMemRefs                 0                       # Number of memory references committed (Count)
system.cpu1.commitStats0.numFpInsts                 0                       # Number of float instructions (Count)
system.cpu1.commitStats0.numIntInsts                0                       # Number of integer instructions (Count)
system.cpu1.commitStats0.numLoadInsts               0                       # Number of load instructions (Count)
system.cpu1.commitStats0.numStoreInsts              0                       # Number of store instructions (Count)
system.cpu1.commitStats0.numVecInsts                0                       # Number of vector instructions (Count)
system.cpu1.commitStats0.committedInstType::No_OpClass            0                       # Class of committed instruction. (Count)
system.cpu1.commitStats0.committedInstType::IntAlu            0                       # Class of committed instruction. (Count)
system.cpu1.commitStats0.committedInstType::IntMult            0                       # Class of committed instruction. (Count)
system.cpu1.commitStats0.committedInstType::IntDiv            0                       # Class of committed instruction. (Count)
system.cpu1.commitStats0.committedInstType::FloatAdd            0                       # Class of committed instruction. (Count)
system.cpu1.commitStats0.committedInstType::FloatCmp            0                       # Class of committed instruction. (Count)
system.cpu1.commitStats0.committedInstType::FloatCvt            0                       # Class of committed instruction. (Count)
system.cpu1.commitStats0.committedInstType::FloatMult            0                       # Class of committed instruction. (Count)
system.cpu1.commitStats0.committedInstType::FloatMultAcc            0                       # Class of committed instruction. (Count)
system.cpu1.commitStats0.committedInstType::FloatDiv            0                       # Class of committed instruction. (Count)
system.cpu1.commitStats0.committedInstType::FloatMisc            0                       # Class of committed instruction. (Count)
system.cpu1.commitStats0.committedInstType::FloatSqrt            0                       # Class of committed instruction. (Count)
system.cpu1.commitStats0.committedInstType::SimdAdd            0                       # Class of committed instruction. (Count)
system.cpu1.commitStats0.committedInstType::SimdAddAcc            0                       # Class of committed instruction. (Count)
system.cpu1.commitStats0.committedInstType::SimdAlu            0                       # Class of committed instruction. (Count)
system.cpu1.commitStats0.committedInstType::SimdCmp            0                       # Class of committed instruction. (Count)
system.cpu1.commitStats0.committedInstType::SimdCvt            0                       # Class of committed instruction. (Count)
system.cpu1.commitStats0.committedInstType::SimdMisc            0                       # Class of committed instruction. (Count)
system.cpu1.commitStats0.committedInstType::SimdMult            0                       # Class of committed instruction. (Count)
system.cpu1.commitStats0.committedInstType::SimdMultAcc            0                       # Class of committed instruction. (Count)
system.cpu1.commitStats0.committedInstType::SimdMatMultAcc            0                       # Class of committed instruction. (Count)
system.cpu1.commitStats0.committedInstType::SimdShift            0                       # Class of committed instruction. (Count)
system.cpu1.commitStats0.committedInstType::SimdShiftAcc            0                       # Class of committed instruction. (Count)
system.cpu1.commitStats0.committedInstType::SimdDiv            0                       # Class of committed instruction. (Count)
system.cpu1.commitStats0.committedInstType::SimdSqrt            0                       # Class of committed instruction. (Count)
system.cpu1.commitStats0.committedInstType::SimdFloatAdd            0                       # Class of committed instruction. (Count)
system.cpu1.commitStats0.committedInstType::SimdFloatAlu            0                       # Class of committed instruction. (Count)
system.cpu1.commitStats0.committedInstType::SimdFloatCmp            0                       # Class of committed instruction. (Count)
system.cpu1.commitStats0.committedInstType::SimdFloatCvt            0                       # Class of committed instruction. (Count)
system.cpu1.commitStats0.committedInstType::SimdFloatDiv            0                       # Class of committed instruction. (Count)
system.cpu1.commitStats0.committedInstType::SimdFloatMisc            0                       # Class of committed instruction. (Count)
system.cpu1.commitStats0.committedInstType::SimdFloatMult            0                       # Class of committed instruction. (Count)
system.cpu1.commitStats0.committedInstType::SimdFloatMultAcc            0                       # Class of committed instruction. (Count)
system.cpu1.commitStats0.committedInstType::SimdFloatMatMultAcc            0                       # Class of committed instruction. (Count)
system.cpu1.commitStats0.committedInstType::SimdFloatSqrt            0                       # Class of committed instruction. (Count)
system.cpu1.commitStats0.committedInstType::SimdReduceAdd            0                       # Class of committed instruction. (Count)
system.cpu1.commitStats0.committedInstType::SimdReduceAlu            0                       # Class of committed instruction. (Count)
system.cpu1.commitStats0.committedInstType::SimdReduceCmp            0                       # Class of committed instruction. (Count)
system.cpu1.commitStats0.committedInstType::SimdFloatReduceAdd            0                       # Class of committed instruction. (Count)
system.cpu1.commitStats0.committedInstType::SimdFloatReduceCmp            0                       # Class of committed instruction. (Count)
system.cpu1.commitStats0.committedInstType::SimdAes            0                       # Class of committed instruction. (Count)
system.cpu1.commitStats0.committedInstType::SimdAesMix            0                       # Class of committed instruction. (Count)
system.cpu1.commitStats0.committedInstType::SimdSha1Hash            0                       # Class of committed instruction. (Count)
system.cpu1.commitStats0.committedInstType::SimdSha1Hash2            0                       # Class of committed instruction. (Count)
system.cpu1.commitStats0.committedInstType::SimdSha256Hash            0                       # Class of committed instruction. (Count)
system.cpu1.commitStats0.committedInstType::SimdSha256Hash2            0                       # Class of committed instruction. (Count)
system.cpu1.commitStats0.committedInstType::SimdShaSigma2            0                       # Class of committed instruction. (Count)
system.cpu1.commitStats0.committedInstType::SimdShaSigma3            0                       # Class of committed instruction. (Count)
system.cpu1.commitStats0.committedInstType::SimdPredAlu            0                       # Class of committed instruction. (Count)
system.cpu1.commitStats0.committedInstType::Matrix            0                       # Class of committed instruction. (Count)
system.cpu1.commitStats0.committedInstType::MatrixMov            0                       # Class of committed instruction. (Count)
system.cpu1.commitStats0.committedInstType::MatrixOP            0                       # Class of committed instruction. (Count)
system.cpu1.commitStats0.committedInstType::MemRead            0                       # Class of committed instruction. (Count)
system.cpu1.commitStats0.committedInstType::MemWrite            0                       # Class of committed instruction. (Count)
system.cpu1.commitStats0.committedInstType::FloatMemRead            0                       # Class of committed instruction. (Count)
system.cpu1.commitStats0.committedInstType::FloatMemWrite            0                       # Class of committed instruction. (Count)
system.cpu1.commitStats0.committedInstType::IprAccess            0                       # Class of committed instruction. (Count)
system.cpu1.commitStats0.committedInstType::InstPrefetch            0                       # Class of committed instruction. (Count)
system.cpu1.commitStats0.committedInstType::VectorUnitStrideLoad            0                       # Class of committed instruction. (Count)
system.cpu1.commitStats0.committedInstType::VectorUnitStrideStore            0                       # Class of committed instruction. (Count)
system.cpu1.commitStats0.committedInstType::VectorUnitStrideMaskLoad            0                       # Class of committed instruction. (Count)
system.cpu1.commitStats0.committedInstType::VectorUnitStrideMaskStore            0                       # Class of committed instruction. (Count)
system.cpu1.commitStats0.committedInstType::VectorStridedLoad            0                       # Class of committed instruction. (Count)
system.cpu1.commitStats0.committedInstType::VectorStridedStore            0                       # Class of committed instruction. (Count)
system.cpu1.commitStats0.committedInstType::VectorIndexedLoad            0                       # Class of committed instruction. (Count)
system.cpu1.commitStats0.committedInstType::VectorIndexedStore            0                       # Class of committed instruction. (Count)
system.cpu1.commitStats0.committedInstType::VectorUnitStrideFaultOnlyFirstLoad            0                       # Class of committed instruction. (Count)
system.cpu1.commitStats0.committedInstType::VectorWholeRegisterLoad            0                       # Class of committed instruction. (Count)
system.cpu1.commitStats0.committedInstType::VectorWholeRegisterStore            0                       # Class of committed instruction. (Count)
system.cpu1.commitStats0.committedInstType::VectorIntegerArith            0                       # Class of committed instruction. (Count)
system.cpu1.commitStats0.committedInstType::VectorFloatArith            0                       # Class of committed instruction. (Count)
system.cpu1.commitStats0.committedInstType::VectorFloatConvert            0                       # Class of committed instruction. (Count)
system.cpu1.commitStats0.committedInstType::VectorIntegerReduce            0                       # Class of committed instruction. (Count)
system.cpu1.commitStats0.committedInstType::VectorFloatReduce            0                       # Class of committed instruction. (Count)
system.cpu1.commitStats0.committedInstType::VectorMisc            0                       # Class of committed instruction. (Count)
system.cpu1.commitStats0.committedInstType::VectorIntegerExtension            0                       # Class of committed instruction. (Count)
system.cpu1.commitStats0.committedInstType::VectorConfig            0                       # Class of committed instruction. (Count)
system.cpu1.commitStats0.committedInstType::total            0                       # Class of committed instruction. (Count)
system.cpu1.dcache.demandHits::switch_cpus1.data       314564                       # number of demand (read+write) hits (Count)
system.cpu1.dcache.demandHits::total           314564                       # number of demand (read+write) hits (Count)
system.cpu1.dcache.overallHits::switch_cpus1.data       314564                       # number of overall hits (Count)
system.cpu1.dcache.overallHits::total          314564                       # number of overall hits (Count)
system.cpu1.dcache.demandMisses::switch_cpus1.data         6687                       # number of demand (read+write) misses (Count)
system.cpu1.dcache.demandMisses::total           6687                       # number of demand (read+write) misses (Count)
system.cpu1.dcache.overallMisses::switch_cpus1.data         6687                       # number of overall misses (Count)
system.cpu1.dcache.overallMisses::total          6687                       # number of overall misses (Count)
system.cpu1.dcache.demandMissLatency::switch_cpus1.data     67218490                       # number of demand (read+write) miss ticks (Tick)
system.cpu1.dcache.demandMissLatency::total     67218490                       # number of demand (read+write) miss ticks (Tick)
system.cpu1.dcache.overallMissLatency::switch_cpus1.data     67218490                       # number of overall miss ticks (Tick)
system.cpu1.dcache.overallMissLatency::total     67218490                       # number of overall miss ticks (Tick)
system.cpu1.dcache.demandAccesses::switch_cpus1.data       321251                       # number of demand (read+write) accesses (Count)
system.cpu1.dcache.demandAccesses::total       321251                       # number of demand (read+write) accesses (Count)
system.cpu1.dcache.overallAccesses::switch_cpus1.data       321251                       # number of overall (read+write) accesses (Count)
system.cpu1.dcache.overallAccesses::total       321251                       # number of overall (read+write) accesses (Count)
system.cpu1.dcache.demandMissRate::switch_cpus1.data     0.020815                       # miss rate for demand accesses (Ratio)
system.cpu1.dcache.demandMissRate::total     0.020815                       # miss rate for demand accesses (Ratio)
system.cpu1.dcache.overallMissRate::switch_cpus1.data     0.020815                       # miss rate for overall accesses (Ratio)
system.cpu1.dcache.overallMissRate::total     0.020815                       # miss rate for overall accesses (Ratio)
system.cpu1.dcache.demandAvgMissLatency::switch_cpus1.data 10052.114551                       # average overall miss latency in ticks ((Tick/Count))
system.cpu1.dcache.demandAvgMissLatency::total 10052.114551                       # average overall miss latency in ticks ((Tick/Count))
[...]
system.switch_cpus3.lsq0.loadToUse::90-99            2      0.00%     99.87% # Distribution of cycle latency between the first time a load is issued and its completion (Unspecified)
system.switch_cpus3.lsq0.loadToUse::100-109            6      0.00%     99.87% # Distribution of cycle latency between the first time a load is issued and its completion (Unspecified)
system.switch_cpus3.lsq0.loadToUse::110-119           12      0.00%     99.87% # Distribution of cycle latency between the first time a load is issued and its completion (Unspecified)
system.switch_cpus3.lsq0.loadToUse::120-129           18      0.01%     99.88% # Distribution of cycle latency between the first time a load is issued and its completion (Unspecified)
system.switch_cpus3.lsq0.loadToUse::130-139           14      0.00%     99.88% # Distribution of cycle latency between the first time a load is issued and its completion (Unspecified)
system.switch_cpus3.lsq0.loadToUse::140-149           24      0.01%     99.89% # Distribution of cycle latency between the first time a load is issued and its completion (Unspecified)
system.switch_cpus3.lsq0.loadToUse::150-159           27      0.01%     99.90% # Distribution of cycle latency between the first time a load is issued and its completion (Unspecified)
system.switch_cpus3.lsq0.loadToUse::160-169          215      0.07%     99.97% # Distribution of cycle latency between the first time a load is issued and its completion (Unspecified)
system.switch_cpus3.lsq0.loadToUse::170-179           19      0.01%     99.98% # Distribution of cycle latency between the first time a load is issued and its completion (Unspecified)
system.switch_cpus3.lsq0.loadToUse::180-189            3      0.00%     99.98% # Distribution of cycle latency between the first time a load is issued and its completion (Unspecified)
system.switch_cpus3.lsq0.loadToUse::190-199            3      0.00%     99.98% # Distribution of cycle latency between the first time a load is issued and its completion (Unspecified)
system.switch_cpus3.lsq0.loadToUse::200-209            4      0.00%     99.98% # Distribution of cycle latency between the first time a load is issued and its completion (Unspecified)
system.switch_cpus3.lsq0.loadToUse::210-219            5      0.00%     99.98% # Distribution of cycle latency between the first time a load is issued and its completion (Unspecified)
system.switch_cpus3.lsq0.loadToUse::220-229            5      0.00%     99.98% # Distribution of cycle latency between the first time a load is issued and its completion (Unspecified)
system.switch_cpus3.lsq0.loadToUse::230-239            2      0.00%     99.99% # Distribution of cycle latency between the first time a load is issued and its completion (Unspecified)
system.switch_cpus3.lsq0.loadToUse::240-249            8      0.00%     99.99% # Distribution of cycle latency between the first time a load is issued and its completion (Unspecified)
system.switch_cpus3.lsq0.loadToUse::250-259            8      0.00%     99.99% # Distribution of cycle latency between the first time a load is issued and its completion (Unspecified)
system.switch_cpus3.lsq0.loadToUse::270-279            1      0.00%     99.99% # Distribution of cycle latency between the first time a load is issued and its completion (Unspecified)
system.switch_cpus3.lsq0.loadToUse::290-299            1      0.00%     99.99% # Distribution of cycle latency between the first time a load is issued and its completion (Unspecified)
system.switch_cpus3.lsq0.loadToUse::overflows           25      0.01%    100.00% # Distribution of cycle latency between the first time a load is issued and its completion (Unspecified)
system.switch_cpus3.lsq0.loadToUse::min_value            2                       # Distribution of cycle latency between the first time a load is issued and its completion (Unspecified)
system.switch_cpus3.lsq0.loadToUse::max_value          517                       # Distribution of cycle latency between the first time a load is issued and its completion (Unspecified)
system.switch_cpus3.lsq0.loadToUse::total       298024                       # Distribution of cycle latency between the first time a load is issued and its completion (Unspecified)
system.switch_cpus3.mmu.dtb.rdAccesses         302589                       # TLB accesses on read requests (Count)
system.switch_cpus3.mmu.dtb.wrAccesses          15511                       # TLB accesses on write requests (Count)
system.switch_cpus3.mmu.dtb.rdMisses               25                       # TLB misses on read requests (Count)
system.switch_cpus3.mmu.dtb.wrMisses                2                       # TLB misses on write requests (Count)
system.switch_cpus3.mmu.dtb.walker.power_state.pwrStateResidencyTicks::UNDEFINED 261711005000                       # Cumulative time (in ticks) in various power states (Tick)
system.switch_cpus3.mmu.itb.rdAccesses              0                       # TLB accesses on read requests (Count)
system.switch_cpus3.mmu.itb.wrAccesses          84184                       # TLB accesses on write requests (Count)
system.switch_cpus3.mmu.itb.rdMisses                0                       # TLB misses on read requests (Count)
system.switch_cpus3.mmu.itb.wrMisses               21                       # TLB misses on write requests (Count)
system.switch_cpus3.mmu.itb.walker.power_state.pwrStateResidencyTicks::UNDEFINED 261711005000                       # Cumulative time (in ticks) in various power states (Tick)
system.switch_cpus3.power_state.numTransitions            1                       # Number of power state transitions (Count)
system.switch_cpus3.power_state.pwrStateResidencyTicks::ON    248463000                       # Cumulative time (in ticks) in various power states (Tick)
system.switch_cpus3.power_state.pwrStateResidencyTicks::OFF     38225500                       # Cumulative time (in ticks) in various power states (Tick)
system.switch_cpus3.rename.squashCycles          2246                       # Number of cycles rename is squashing (Cycle)
system.switch_cpus3.rename.idleCycles          119106                       # Number of cycles rename is idle (Cycle)
system.switch_cpus3.rename.blockCycles          31830                       # Number of cycles rename is blocking (Cycle)
system.switch_cpus3.rename.serializeStallCycles            0                       # count of cycles rename stalled for serializing inst (Cycle)
system.switch_cpus3.rename.runCycles           339427                       # Number of cycles rename is running (Cycle)
system.switch_cpus3.rename.unblockCycles         1770                       # Number of cycles rename is unblocking (Cycle)
system.switch_cpus3.rename.renamedInsts       2193306                       # Number of instructions processed by rename (Count)
system.switch_cpus3.rename.ROBFullEvents          819                       # Number of times rename has blocked due to ROB full (Count)
system.switch_cpus3.rename.IQFullEvents           312                       # Number of times rename has blocked due to IQ full (Count)
system.switch_cpus3.rename.LQFullEvents           708                       # Number of times rename has blocked due to LQ full (Count)
system.switch_cpus3.rename.renamedOperands      3698567                       # Number of destination operands rename has renamed (Count)
system.switch_cpus3.rename.lookups            6826908                       # Number of register rename lookups that rename has made (Count)
system.switch_cpus3.rename.intLookups         2025624                       # Number of integer rename lookups (Count)
system.switch_cpus3.rename.fpLookups           900465                       # Number of floating rename lookups (Count)
system.switch_cpus3.rename.committedMaps      3596338                       # Number of HB maps that are committed (Count)
system.switch_cpus3.rename.undoneMaps          102133                       # Number of HB maps that are undone due to squashing (Count)
system.switch_cpus3.rename.serializing              0                       # count of serializing insts renamed (Count)
system.switch_cpus3.rename.tempSerializing            0                       # count of temporary serializing insts renamed (Count)
system.switch_cpus3.rename.skidInsts             3703                       # count of insts added to the skid buffer (Count)
system.switch_cpus3.rob.reads                 2587040                       # The number of ROB reads (Count)
system.switch_cpus3.rob.writes                4375422                       # The number of ROB writes (Count)
system.switch_cpus3.thread_0.numInsts         1252815                       # Number of Instructions committed (Count)
system.switch_cpus3.thread_0.numOps           2125246                       # Number of Ops committed (Count)
system.switch_cpus3.thread_0.numMemRefs             0                       # Number of Memory References (Count)
system.tol2bus.transDist::ReadResp              11629                       # Transaction distribution (Count)
system.tol2bus.transDist::ReadRespWithInvalidate           34                       # Transaction distribution (Count)
system.tol2bus.transDist::WritebackDirty          177                       # Transaction distribution (Count)
system.tol2bus.transDist::WritebackClean          777                       # Transaction distribution (Count)
system.tol2bus.transDist::CleanEvict              186                       # Transaction distribution (Count)
system.tol2bus.transDist::HardPFReq                39                       # Transaction distribution (Count)
system.tol2bus.transDist::UpgradeReq             4494                       # Transaction distribution (Count)
system.tol2bus.transDist::UpgradeResp            4494                       # Transaction distribution (Count)
system.tol2bus.transDist::ReadExReq             15018                       # Transaction distribution (Count)
system.tol2bus.transDist::ReadExResp            15018                       # Transaction distribution (Count)
system.tol2bus.transDist::ReadCleanReq           1472                       # Transaction distribution (Count)
system.tol2bus.transDist::ReadSharedReq         10192                       # Transaction distribution (Count)
system.tol2bus.pktCount_system.cpu0.icache.mem_side_port::system.l2.cpu_side_port         3348                       # Packet count per connected requestor and responder (Count)
system.tol2bus.pktCount_system.cpu0.dcache.mem_side_port::system.l2.cpu_side_port        10558                       # Packet count per connected requestor and responder (Count)
system.tol2bus.pktCount_system.cpu1.icache.mem_side_port::system.l2.cpu_side_port          114                       # Packet count per connected requestor and responder (Count)
system.tol2bus.pktCount_system.cpu1.dcache.mem_side_port::system.l2.cpu_side_port         8948                       # Packet count per connected requestor and responder (Count)
system.tol2bus.pktCount_system.cpu2.icache.mem_side_port::system.l2.cpu_side_port          120                       # Packet count per connected requestor and responder (Count)
system.tol2bus.pktCount_system.cpu2.dcache.mem_side_port::system.l2.cpu_side_port         8076                       # Packet count per connected requestor and responder (Count)
system.tol2bus.pktCount_system.cpu3.icache.mem_side_port::system.l2.cpu_side_port          132                       # Packet count per connected requestor and responder (Count)
system.tol2bus.pktCount_system.cpu3.dcache.mem_side_port::system.l2.cpu_side_port         7655                       # Packet count per connected requestor and responder (Count)
system.tol2bus.pktCount::total                  38951                       # Packet count per connected requestor and responder (Count)
system.tol2bus.pktSize_system.cpu0.icache.mem_side_port::system.l2.cpu_side_port       131776                       # Cumulative packet size per connected requestor and responder (Byte)
system.tol2bus.pktSize_system.cpu0.dcache.mem_side_port::system.l2.cpu_side_port        94592                       # Cumulative packet size per connected requestor and responder (Byte)
system.tol2bus.pktSize_system.cpu1.icache.mem_side_port::system.l2.cpu_side_port         3648                       # Cumulative packet size per connected requestor and responder (Byte)
system.tol2bus.pktSize_system.cpu1.dcache.mem_side_port::system.l2.cpu_side_port        25088                       # Cumulative packet size per connected requestor and responder (Byte)
system.tol2bus.pktSize_system.cpu2.icache.mem_side_port::system.l2.cpu_side_port         3840                       # Cumulative packet size per connected requestor and responder (Byte)
system.tol2bus.pktSize_system.cpu2.dcache.mem_side_port::system.l2.cpu_side_port        25152                       # Cumulative packet size per connected requestor and responder (Byte)
system.tol2bus.pktSize_system.cpu3.icache.mem_side_port::system.l2.cpu_side_port         4224                       # Cumulative packet size per connected requestor and responder (Byte)
system.tol2bus.pktSize_system.cpu3.dcache.mem_side_port::system.l2.cpu_side_port        25088                       # Cumulative packet size per connected requestor and responder (Byte)
system.tol2bus.pktSize::total                  313408                       # Cumulative packet size per connected requestor and responder (Byte)
system.tol2bus.snoops                           24579                       # Total snoops (Count)
system.tol2bus.snoopTraffic                   1455232                       # Total snoop traffic (Byte)
system.tol2bus.snoopFanout::samples             31215                       # Request fanout histogram (Count)
system.tol2bus.snoopFanout::mean             1.223002                       # Request fanout histogram (Count)
system.tol2bus.snoopFanout::stdev            0.730850                       # Request fanout histogram (Count)
system.tol2bus.snoopFanout::underflows              0      0.00%      0.00% # Request fanout histogram (Count)
system.tol2bus.snoopFanout::0                    3409     10.92%     10.92% # Request fanout histogram (Count)
system.tol2bus.snoopFanout::1                   19638     62.91%     73.83% # Request fanout histogram (Count)
system.tol2bus.snoopFanout::2                    5977     19.15%     92.98% # Request fanout histogram (Count)
system.tol2bus.snoopFanout::3                    2186      7.00%     99.98% # Request fanout histogram (Count)
system.tol2bus.snoopFanout::4                       2      0.01%     99.99% # Request fanout histogram (Count)
system.tol2bus.snoopFanout::5                       1      0.00%     99.99% # Request fanout histogram (Count)
system.tol2bus.snoopFanout::6                       1      0.00%    100.00% # Request fanout histogram (Count)
system.tol2bus.snoopFanout::7                       1      0.00%    100.00% # Request fanout histogram (Count)
system.tol2bus.snoopFanout::8                       0      0.00%    100.00% # Request fanout histogram (Count)
system.tol2bus.snoopFanout::9                       0      0.00%    100.00% # Request fanout histogram (Count)
system.tol2bus.snoopFanout::10                      0      0.00%    100.00% # Request fanout histogram (Count)
system.tol2bus.snoopFanout::11                      0      0.00%    100.00% # Request fanout histogram (Count)
system.tol2bus.snoopFanout::12                      0      0.00%    100.00% # Request fanout histogram (Count)
system.tol2bus.snoopFanout::13                      0      0.00%    100.00% # Request fanout histogram (Count)
system.tol2bus.snoopFanout::14                      0      0.00%    100.00% # Request fanout histogram (Count)
system.tol2bus.snoopFanout::15                      0      0.00%    100.00% # Request fanout histogram (Count)
system.tol2bus.snoopFanout::16                      0      0.00%    100.00% # Request fanout histogram (Count)
system.tol2bus.snoopFanout::overflows               0      0.00%    100.00% # Request fanout histogram (Count)
system.tol2bus.snoopFanout::min_value               0                       # Request fanout histogram (Count)
system.tol2bus.snoopFanout::max_value               7                       # Request fanout histogram (Count)
system.tol2bus.snoopFanout::total               31215                       # Request fanout histogram (Count)
system.tol2bus.power_state.pwrStateResidencyTicks::UNDEFINED 261711005000                       # Cumulative time (in ticks) in various power states (Tick)
system.tol2bus.reqLayer0.occupancy           19602105                       # Layer occupancy (ticks) (Tick)
system.tol2bus.reqLayer0.utilization              0.1                       # Layer utilization (Ratio)
system.tol2bus.respLayer0.occupancy           1930992                       # Layer occupancy (ticks) (Tick)
system.tol2bus.respLayer0.utilization             0.0                       # Layer utilization (Ratio)
system.tol2bus.respLayer1.occupancy          10743682                       # Layer occupancy (ticks) (Tick)
system.tol2bus.respLayer1.utilization             0.0                       # Layer utilization (Ratio)
system.tol2bus.respLayer12.occupancy           103483                       # Layer occupancy (ticks) (Tick)
system.tol2bus.respLayer12.utilization            0.0                       # Layer utilization (Ratio)
system.tol2bus.respLayer13.occupancy          8527341                       # Layer occupancy (ticks) (Tick)
system.tol2bus.respLayer13.utilization            0.0                       # Layer utilization (Ratio)
system.tol2bus.respLayer4.occupancy             91474                       # Layer occupancy (ticks) (Tick)
system.tol2bus.respLayer4.utilization             0.0                       # Layer utilization (Ratio)
system.tol2bus.respLayer5.occupancy          11355908                       # Layer occupancy (ticks) (Tick)
system.tol2bus.respLayer5.utilization             0.0                       # Layer utilization (Ratio)
system.tol2bus.respLayer8.occupancy             95980                       # Layer occupancy (ticks) (Tick)
system.tol2bus.respLayer8.utilization             0.0                       # Layer utilization (Ratio)
system.tol2bus.respLayer9.occupancy           9943598                       # Layer occupancy (ticks) (Tick)
system.tol2bus.respLayer9.utilization             0.0                       # Layer utilization (Ratio)
system.tol2bus.snoop_filter.totRequests         32316                       # Total number of requests made to the snoop filter. (Count)
system.tol2bus.snoop_filter.hitSingleRequests        17344                       # Number of requests hitting in the snoop filter with a single holder of the requested data. (Count)
system.tol2bus.snoop_filter.hitMultiRequests        11602                       # Number of requests hitting in the snoop filter with multiple (>1) holders of the requested data. (Count)
system.tol2bus.snoop_filter.totSnoops               0                       # Total number of snoops made to the snoop filter. (Count)
system.tol2bus.snoop_filter.hitSingleSnoops            0                       # Number of snoops hitting in the snoop filter with a single holder of the requested data. (Count)
system.tol2bus.snoop_filter.hitMultiSnoops            0                       # Number of snoops hitting in the snoop filter with multiple (>1) holders of the requested data. (Count)
system.voltage_domain.voltage                       1                       # Voltage in Volts (Volt)
system.workload.inst.arm                            0                       # number of arm instructions executed (Count)
system.workload.inst.quiesce                        0                       # number of quiesce instructions executed (Count)

---------- End Simulation Statistics   ----------
