
---------- Begin Simulation Statistics ----------
simSeconds                                   0.000027                       # Number of seconds simulated (Second)
simTicks                                     27228500                       # Number of ticks simulated (Tick)
finalTick                                  1315946500                       # Number of ticks from beginning of simulation (restored from checkpoints and never reset) (Tick)
simFreq                                  1000000000000                       # The number of ticks per simulated second ((Tick/Second))
hostSeconds                                      0.37                       # Real time elapsed on the host (Second)
hostTickRate                                 74485372                       # The number of ticks simulated per host second (ticks/s) ((Tick/Second))
hostMemory                                   17300468                       # Number of bytes of host memory used (Byte)
simInsts                                      2148859                       # Number of instructions simulated (Count)
simOps                                        3725566                       # Number of ops (including micro ops) simulated (Count)
hostInstRate                                  5876707                       # Simulator instruction rate (inst/s) ((Count/Second))
hostOpRate                                   10188495                       # Simulator op (including micro ops) rate (op/s) ((Count/Second))
system.clk_domain.clock                           313                       # Clock period in ticks (Tick)
system.cpu.numCycles                            54457                       # Number of cpu cycles simulated (Cycle)
system.cpu.cpi                               4.177432                       # CPI: cycles per instruction (core level) ((Cycle/Count))
system.cpu.ipc                               0.239382                       # IPC: instructions per cycle (core level) ((Count/Cycle))
system.cpu.numWorkItemsStarted                      0                       # Number of work items this cpu started (Count)
system.cpu.numWorkItemsCompleted                    0                       # Number of work items this cpu completed (Count)
system.cpu.instsAdded                           35890                       # Number of instructions added to the IQ (excludes non-spec) (Count)
system.cpu.nonSpecInstsAdded                      140                       # Number of non-speculative instructions added to the IQ (Count)
system.cpu.instsIssued                          32106                       # Number of instructions issued (Count)
system.cpu.squashedInstsIssued                    194                       # Number of squashed instructions issued (Count)
system.cpu.squashedInstsExamined                11360                       # Number of squashed instructions iterated over during squash; mainly for profiling (Count)
system.cpu.squashedOperandsExamined             19668                       # Number of squashed operands that are examined and possibly removed from graph (Count)
system.cpu.squashedNonSpecRemoved                  29                       # Number of squashed non-spec instructions that were removed (Count)
system.cpu.numIssuedDist::samples               28620                       # Number of insts issued each cycle (Count)
system.cpu.numIssuedDist::mean               1.121803                       # Number of insts issued each cycle (Count)
system.cpu.numIssuedDist::stdev              1.812669                       # Number of insts issued each cycle (Count)
system.cpu.numIssuedDist::underflows                0      0.00%      0.00% # Number of insts issued each cycle (Count)
system.cpu.numIssuedDist::0                     18128     63.34%     63.34% # Number of insts issued each cycle (Count)
system.cpu.numIssuedDist::1                      2609      9.12%     72.46% # Number of insts issued each cycle (Count)
system.cpu.numIssuedDist::2                      1945      6.80%     79.25% # Number of insts issued each cycle (Count)
system.cpu.numIssuedDist::3                      1785      6.24%     85.49% # Number of insts issued each cycle (Count)
system.cpu.numIssuedDist::4                      1994      6.97%     92.46% # Number of insts issued each cycle (Count)
system.cpu.numIssuedDist::5                      1247      4.36%     96.81% # Number of insts issued each cycle (Count)
system.cpu.numIssuedDist::6                       488      1.71%     98.52% # Number of insts issued each cycle (Count)
system.cpu.numIssuedDist::7                       279      0.97%     99.49% # Number of insts issued each cycle (Count)
system.cpu.numIssuedDist::8                       145      0.51%    100.00% # Number of insts issued each cycle (Count)
system.cpu.numIssuedDist::overflows                 0      0.00%    100.00% # Number of insts issued each cycle (Count)
system.cpu.numIssuedDist::min_value                 0                       # Number of insts issued each cycle (Count)
system.cpu.numIssuedDist::max_value                 8                       # Number of insts issued each cycle (Count)
system.cpu.numIssuedDist::total                 28620                       # Number of insts issued each cycle (Count)
system.cpu.statFuBusy::No_OpClass                   0      0.00%      0.00% # attempts to use FU when none available (Count)
system.cpu.statFuBusy::IntAlu                    1364     80.28%     80.28% # attempts to use FU when none available (Count)
system.cpu.statFuBusy::IntMult                      0      0.00%     80.28% # attempts to use FU when none available (Count)
system.cpu.statFuBusy::IntDiv                       0      0.00%     80.28% # attempts to use FU when none available (Count)
system.cpu.statFuBusy::FloatAdd                     0      0.00%     80.28% # attempts to use FU when none available (Count)
system.cpu.statFuBusy::FloatCmp                     0      0.00%     80.28% # attempts to use FU when none available (Count)
system.cpu.statFuBusy::FloatCvt                    53      3.12%     83.40% # attempts to use FU when none available (Count)
system.cpu.statFuBusy::FloatMult                    0      0.00%     83.40% # attempts to use FU when none available (Count)
system.cpu.statFuBusy::FloatMultAcc                 0      0.00%     83.40% # attempts to use FU when none available (Count)
system.cpu.statFuBusy::FloatDiv                     0      0.00%     83.40% # attempts to use FU when none available (Count)
system.cpu.statFuBusy::FloatMisc                    0      0.00%     83.40% # attempts to use FU when none available (Count)
system.cpu.statFuBusy::FloatSqrt                    0      0.00%     83.40% # attempts to use FU when none available (Count)
system.cpu.statFuBusy::SimdAdd                      0      0.00%     83.40% # attempts to use FU when none available (Count)
system.cpu.statFuBusy::SimdAddAcc                   0      0.00%     83.40% # attempts to use FU when none available (Count)
system.cpu.statFuBusy::SimdAlu                      2      0.12%     83.52% # attempts to use FU when none available (Count)
system.cpu.statFuBusy::SimdCmp                      0      0.00%     83.52% # attempts to use FU when none available (Count)
system.cpu.statFuBusy::SimdCvt                      0      0.00%     83.52% # attempts to use FU when none available (Count)
system.cpu.statFuBusy::SimdMisc                     0      0.00%     83.52% # attempts to use FU when none available (Count)
system.cpu.statFuBusy::SimdMult                     0      0.00%     83.52% # attempts to use FU when none available (Count)
system.cpu.statFuBusy::SimdMultAcc                  0      0.00%     83.52% # attempts to use FU when none available (Count)
system.cpu.statFuBusy::SimdMatMultAcc               0      0.00%     83.52% # attempts to use FU when none available (Count)
system.cpu.statFuBusy::SimdShift                    0      0.00%     83.52% # attempts to use FU when none available (Count)
system.cpu.statFuBusy::SimdShiftAcc                 0      0.00%     83.52% # attempts to use FU when none available (Count)
system.cpu.statFuBusy::SimdDiv                      0      0.00%     83.52% # attempts to use FU when none available (Count)
system.cpu.statFuBusy::SimdSqrt                     0      0.00%     83.52% # attempts to use FU when none available (Count)
system.cpu.statFuBusy::SimdFloatAdd                 0      0.00%     83.52% # attempts to use FU when none available (Count)
system.cpu.statFuBusy::SimdFloatAlu                 0      0.00%     83.52% # attempts to use FU when none available (Count)
system.cpu.statFuBusy::SimdFloatCmp                 0      0.00%     83.52% # attempts to use FU when none available (Count)
system.cpu.statFuBusy::SimdFloatCvt                 0      0.00%     83.52% # attempts to use FU when none available (Count)
system.cpu.statFuBusy::SimdFloatDiv                 0      0.00%     83.52% # attempts to use FU when none available (Count)
system.cpu.statFuBusy::SimdFloatMisc                0      0.00%     83.52% # attempts to use FU when none available (Count)
system.cpu.statFuBusy::SimdFloatMult                0      0.00%     83.52% # attempts to use FU when none available (Count)
system.cpu.statFuBusy::SimdFloatMultAcc             0      0.00%     83.52% # attempts to use FU when none available (Count)
system.cpu.statFuBusy::SimdFloatMatMultAcc            0      0.00%     83.52% # attempts to use FU when none available (Count)
system.cpu.statFuBusy::SimdFloatSqrt                0      0.00%     83.52% # attempts to use FU when none available (Count)
system.cpu.statFuBusy::SimdReduceAdd                0      0.00%     83.52% # attempts to use FU when none available (Count)
system.cpu.statFuBusy::SimdReduceAlu                0      0.00%     83.52% # attempts to use FU when none available (Count)
system.cpu.statFuBusy::SimdReduceCmp                0      0.00%     83.52% # attempts to use FU when none available (Count)
system.cpu.statFuBusy::SimdFloatReduceAdd            0      0.00%     83.52% # attempts to use FU when none available (Count)
system.cpu.statFuBusy::SimdFloatReduceCmp            0      0.00%     83.52% # attempts to use FU when none available (Count)
system.cpu.statFuBusy::SimdAes                      0      0.00%     83.52% # attempts to use FU when none available (Count)
system.cpu.statFuBusy::SimdAesMix                   0      0.00%     83.52% # attempts to use FU when none available (Count)
system.cpu.statFuBusy::SimdSha1Hash                 0      0.00%     83.52% # attempts to use FU when none available (Count)
system.cpu.statFuBusy::SimdSha1Hash2                0      0.00%     83.52% # attempts to use FU when none available (Count)
system.cpu.statFuBusy::SimdSha256Hash               0      0.00%     83.52% # attempts to use FU when none available (Count)
system.cpu.statFuBusy::SimdSha256Hash2              0      0.00%     83.52% # attempts to use FU when none available (Count)
system.cpu.statFuBusy::SimdShaSigma2                0      0.00%     83.52% # attempts to use FU when none available (Count)
system.cpu.statFuBusy::SimdShaSigma3                0      0.00%     83.52% # attempts to use FU when none available (Count)
system.cpu.statFuBusy::SimdPredAlu                  0      0.00%     83.52% # attempts to use FU when none available (Count)
system.cpu.statFuBusy::Matrix                       0      0.00%     83.52% # attempts to use FU when none available (Count)
system.cpu.statFuBusy::MatrixMov                    0      0.00%     83.52% # attempts to use FU when none available (Count)
system.cpu.statFuBusy::MatrixOP                     0      0.00%     83.52% # attempts to use FU when none available (Count)
system.cpu.statFuBusy::MemRead                    143      8.42%     91.94% # attempts to use FU when none available (Count)
system.cpu.statFuBusy::MemWrite                    93      5.47%     97.41% # attempts to use FU when none available (Count)
system.cpu.statFuBusy::FloatMemRead                29      1.71%     99.12% # attempts to use FU when none available (Count)
system.cpu.statFuBusy::FloatMemWrite               15      0.88%    100.00% # attempts to use FU when none available (Count)
system.cpu.statFuBusy::IprAccess                    0      0.00%    100.00% # attempts to use FU when none available (Count)
system.cpu.statFuBusy::InstPrefetch                 0      0.00%    100.00% # attempts to use FU when none available (Count)
system.cpu.statFuBusy::VectorUnitStrideLoad            0      0.00%    100.00% # attempts to use FU when none available (Count)
system.cpu.statFuBusy::VectorUnitStrideStore            0      0.00%    100.00% # attempts to use FU when none available (Count)
system.cpu.statFuBusy::VectorUnitStrideMaskLoad            0      0.00%    100.00% # attempts to use FU when none available (Count)
system.cpu.statFuBusy::VectorUnitStrideMaskStore            0      0.00%    100.00% # attempts to use FU when none available (Count)
system.cpu.statFuBusy::VectorStridedLoad            0      0.00%    100.00% # attempts to use FU when none available (Count)
system.cpu.statFuBusy::VectorStridedStore            0      0.00%    100.00% # attempts to use FU when none available (Count)
system.cpu.statFuBusy::VectorIndexedLoad            0      0.00%    100.00% # attempts to use FU when none available (Count)
system.cpu.statFuBusy::VectorIndexedStore            0      0.00%    100.00% # attempts to use FU when none available (Count)
system.cpu.statFuBusy::VectorUnitStrideFaultOnlyFirstLoad            0      0.00%    100.00% # attempts to use FU when none available (Count)
system.cpu.statFuBusy::VectorWholeRegisterLoad            0      0.00%    100.00% # attempts to use FU when none available (Count)
system.cpu.statFuBusy::VectorWholeRegisterStore            0      0.00%    100.00% # attempts to use FU when none available (Count)
system.cpu.statFuBusy::VectorIntegerArith            0      0.00%    100.00% # attempts to use FU when none available (Count)
system.cpu.statFuBusy::VectorFloatArith             0      0.00%    100.00% # attempts to use FU when none available (Count)
system.cpu.statFuBusy::VectorFloatConvert            0      0.00%    100.00% # attempts to use FU when none available (Count)
system.cpu.statFuBusy::VectorIntegerReduce            0      0.00%    100.00% # attempts to use FU when none available (Count)
system.cpu.statFuBusy::VectorFloatReduce            0      0.00%    100.00% # attempts to use FU when none available (Count)
system.cpu.statFuBusy::VectorMisc                   0      0.00%    100.00% # attempts to use FU when none available (Count)
system.cpu.statFuBusy::VectorIntegerExtension            0      0.00%    100.00% # attempts to use FU when none available (Count)
system.cpu.statFuBusy::VectorConfig                 0      0.00%    100.00% # attempts to use FU when none available (Count)
system.cpu.statIssuedInstType_0::No_OpClass          971      3.02%      3.02% # Number of instructions issued per FU type, per thread (Count)
system.cpu.statIssuedInstType_0::IntAlu         22000     68.52%     71.55% # Number of instructions issued per FU type, per thread (Count)
system.cpu.statIssuedInstType_0::IntMult           41      0.13%     71.68% # Number of instructions issued per FU type, per thread (Count)
system.cpu.statIssuedInstType_0::IntDiv           124      0.39%     72.06% # Number of instructions issued per FU type, per thread (Count)
system.cpu.statIssuedInstType_0::FloatAdd          182      0.57%     72.63% # Number of instructions issued per FU type, per thread (Count)
system.cpu.statIssuedInstType_0::FloatCmp            0      0.00%     72.63% # Number of instructions issued per FU type, per thread (Count)
system.cpu.statIssuedInstType_0::FloatCvt          124      0.39%     73.01% # Number of instructions issued per FU type, per thread (Count)
system.cpu.statIssuedInstType_0::FloatMult            0      0.00%     73.01% # Number of instructions issued per FU type, per thread (Count)
system.cpu.statIssuedInstType_0::FloatMultAcc            0      0.00%     73.01% # Number of instructions issued per FU type, per thread (Count)
system.cpu.statIssuedInstType_0::FloatDiv            0      0.00%     73.01% # Number of instructions issued per FU type, per thread (Count)
system.cpu.statIssuedInstType_0::FloatMisc            0      0.00%     73.01% # Number of instructions issued per FU type, per thread (Count)
system.cpu.statIssuedInstType_0::FloatSqrt            0      0.00%     73.01% # Number of instructions issued per FU type, per thread (Count)
system.cpu.statIssuedInstType_0::SimdAdd           26      0.08%     73.10% # Number of instructions issued per FU type, per thread (Count)
system.cpu.statIssuedInstType_0::SimdAddAcc            0      0.00%     73.10% # Number of instructions issued per FU type, per thread (Count)
system.cpu.statIssuedInstType_0::SimdAlu          107      0.33%     73.43% # Number of instructions issued per FU type, per thread (Count)
system.cpu.statIssuedInstType_0::SimdCmp            0      0.00%     73.43% # Number of instructions issued per FU type, per thread (Count)
system.cpu.statIssuedInstType_0::SimdCvt           67      0.21%     73.64% # Number of instructions issued per FU type, per thread (Count)
system.cpu.statIssuedInstType_0::SimdMisc           82      0.26%     73.89% # Number of instructions issued per FU type, per thread (Count)
system.cpu.statIssuedInstType_0::SimdMult            0      0.00%     73.89% # Number of instructions issued per FU type, per thread (Count)
system.cpu.statIssuedInstType_0::SimdMultAcc            0      0.00%     73.89% # Number of instructions issued per FU type, per thread (Count)
system.cpu.statIssuedInstType_0::SimdMatMultAcc            0      0.00%     73.89% # Number of instructions issued per FU type, per thread (Count)
system.cpu.statIssuedInstType_0::SimdShift           17      0.05%     73.95% # Number of instructions issued per FU type, per thread (Count)
system.cpu.statIssuedInstType_0::SimdShiftAcc            0      0.00%     73.95% # Number of instructions issued per FU type, per thread (Count)
system.cpu.statIssuedInstType_0::SimdDiv            0      0.00%     73.95% # Number of instructions issued per FU type, per thread (Count)
system.cpu.statIssuedInstType_0::SimdSqrt            0      0.00%     73.95% # Number of instructions issued per FU type, per thread (Count)
system.cpu.statIssuedInstType_0::SimdFloatAdd          300      0.93%     74.88% # Number of instructions issued per FU type, per thread (Count)
system.cpu.statIssuedInstType_0::SimdFloatAlu            0      0.00%     74.88% # Number of instructions issued per FU type, per thread (Count)
system.cpu.statIssuedInstType_0::SimdFloatCmp            0      0.00%     74.88% # Number of instructions issued per FU type, per thread (Count)
system.cpu.statIssuedInstType_0::SimdFloatCvt            3      0.01%     74.89% # Number of instructions issued per FU type, per thread (Count)
system.cpu.statIssuedInstType_0::SimdFloatDiv            1      0.00%     74.89% # Number of instructions issued per FU type, per thread (Count)
system.cpu.statIssuedInstType_0::SimdFloatMisc            0      0.00%     74.89% # Number of instructions issued per FU type, per thread (Count)
system.cpu.statIssuedInstType_0::SimdFloatMult            0      0.00%     74.89% # Number of instructions issued per FU type, per thread (Count)
system.cpu.statIssuedInstType_0::SimdFloatMultAcc            0      0.00%     74.89% # Number of instructions issued per FU type, per thread (Count)
system.cpu.statIssuedInstType_0::SimdFloatMatMultAcc            0      0.00%     74.89% # Number of instructions issued per FU type, per thread (Count)
system.cpu.statIssuedInstType_0::SimdFloatSqrt            0      0.00%     74.89% # Number of instructions issued per FU type, per thread (Count)
system.cpu.statIssuedInstType_0::SimdReduceAdd            0      0.00%     74.89% # Number of instructions issued per FU type, per thread (Count)
system.cpu.statIssuedInstType_0::SimdReduceAlu            0      0.00%     74.89% # Number of instructions issued per FU type, per thread (Count)
system.cpu.statIssuedInstType_0::SimdReduceCmp            0      0.00%     74.89% # Number of instructions issued per FU type, per thread (Count)
system.cpu.statIssuedInstType_0::SimdFloatReduceAdd            0      0.00%     74.89% # Number of instructions issued per FU type, per thread (Count)
system.cpu.statIssuedInstType_0::SimdFloatReduceCmp            0      0.00%     74.89% # Number of instructions issued per FU type, per thread (Count)
system.cpu.statIssuedInstType_0::SimdAes            0      0.00%     74.89% # Number of instructions issued per FU type, per thread (Count)
system.cpu.statIssuedInstType_0::SimdAesMix            0      0.00%     74.89% # Number of instructions issued per FU type, per thread (Count)
system.cpu.statIssuedInstType_0::SimdSha1Hash            0      0.00%     74.89% # Number of instructions issued per FU type, per thread (Count)
system.cpu.statIssuedInstType_0::SimdSha1Hash2            0      0.00%     74.89% # Number of instructions issued per FU type, per thread (Count)
system.cpu.statIssuedInstType_0::SimdSha256Hash            0      0.00%     74.89% # Number of instructions issued per FU type, per thread (Count)
system.cpu.statIssuedInstType_0::SimdSha256Hash2            0      0.00%     74.89% # Number of instructions issued per FU type, per thread (Count)
system.cpu.statIssuedInstType_0::SimdShaSigma2            0      0.00%     74.89% # Number of instructions issued per FU type, per thread (Count)
system.cpu.statIssuedInstType_0::SimdShaSigma3            0      0.00%     74.89% # Number of instructions issued per FU type, per thread (Count)
system.cpu.statIssuedInstType_0::SimdPredAlu            0      0.00%     74.89% # Number of instructions issued per FU type, per thread (Count)
system.cpu.statIssuedInstType_0::Matrix             0      0.00%     74.89% # Number of instructions issued per FU type, per thread (Count)
system.cpu.statIssuedInstType_0::MatrixMov            0      0.00%     74.89% # Number of instructions issued per FU type, per thread (Count)
system.cpu.statIssuedInstType_0::MatrixOP            0      0.00%     74.89% # Number of instructions issued per FU type, per thread (Count)
system.cpu.statIssuedInstType_0::MemRead         4858     15.13%     90.02% # Number of instructions issued per FU type, per thread (Count)
system.cpu.statIssuedInstType_0::MemWrite         2030      6.32%     96.35% # Number of instructions issued per FU type, per thread (Count)
system.cpu.statIssuedInstType_0::FloatMemRead          737      2.30%     98.64% # Number of instructions issued per FU type, per thread (Count)
system.cpu.statIssuedInstType_0::FloatMemWrite          436      1.36%    100.00% # Number of instructions issued per FU type, per thread (Count)
system.cpu.statIssuedInstType_0::IprAccess            0      0.00%    100.00% # Number of instructions issued per FU type, per thread (Count)
system.cpu.statIssuedInstType_0::InstPrefetch            0      0.00%    100.00% # Number of instructions issued per FU type, per thread (Count)
system.cpu.statIssuedInstType_0::VectorUnitStrideLoad            0      0.00%    100.00% # Number of instructions issued per FU type, per thread (Count)
system.cpu.statIssuedInstType_0::VectorUnitStrideStore            0      0.00%    100.00% # Number of instructions issued per FU type, per thread (Count)
system.cpu.statIssuedInstType_0::VectorUnitStrideMaskLoad            0      0.00%    100.00% # Number of instructions issued per FU type, per thread (Count)
system.cpu.statIssuedInstType_0::VectorUnitStrideMaskStore            0      0.00%    100.00% # Number of instructions issued per FU type, per thread (Count)
system.cpu.statIssuedInstType_0::VectorStridedLoad            0      0.00%    100.00% # Number of instructions issued per FU type, per thread (Count)
system.cpu.statIssuedInstType_0::VectorStridedStore            0      0.00%    100.00% # Number of instructions issued per FU type, per thread (Count)
system.cpu.statIssuedInstType_0::VectorIndexedLoad            0      0.00%    100.00% # Number of instructions issued per FU type, per thread (Count)
system.cpu.statIssuedInstType_0::VectorIndexedStore            0      0.00%    100.00% # Number of instructions issued per FU type, per thread (Count)
system.cpu.statIssuedInstType_0::VectorUnitStrideFaultOnlyFirstLoad            0      0.00%    100.00% # Number of instructions issued per FU type, per thread (Count)
system.cpu.statIssuedInstType_0::VectorWholeRegisterLoad            0      0.00%    100.00% # Number of instructions issued per FU type, per thread (Count)
system.cpu.statIssuedInstType_0::VectorWholeRegisterStore            0      0.00%    100.00% # Number of instructions issued per FU type, per thread (Count)
system.cpu.statIssuedInstType_0::VectorIntegerArith            0      0.00%    100.00% # Number of instructions issued per FU type, per thread (Count)
system.cpu.statIssuedInstType_0::VectorFloatArith            0      0.00%    100.00% # Number of instructions issued per FU type, per thread (Count)
system.cpu.statIssuedInstType_0::VectorFloatConvert            0      0.00%    100.00% # Number of instructions issued per FU type, per thread (Count)
system.cpu.statIssuedInstType_0::VectorIntegerReduce            0      0.00%    100.00% # Number of instructions issued per FU type, per thread (Count)
system.cpu.statIssuedInstType_0::VectorFloatReduce            0      0.00%    100.00% # Number of instructions issued per FU type, per thread (Count)
system.cpu.statIssuedInstType_0::VectorMisc            0      0.00%    100.00% # Number of instructions issued per FU type, per thread (Count)
system.cpu.statIssuedInstType_0::VectorIntegerExtension            0      0.00%    100.00% # Number of instructions issued per FU type, per thread (Count)
system.cpu.statIssuedInstType_0::VectorConfig            0      0.00%    100.00% # Number of instructions issued per FU type, per thread (Count)
system.cpu.statIssuedInstType_0::total          32106                       # Number of instructions issued per FU type, per thread (Count)
system.cpu.issueRate                         0.589566                       # Inst issue rate ((Count/Cycle))
system.cpu.fuBusy                                1699                       # FU busy when requested (Count)
system.cpu.fuBusyRate                        0.052918                       # FU busy rate (busy events/executed inst) ((Count/Count))
system.cpu.intInstQueueReads                    90429                       # Number of integer instruction queue reads (Count)
system.cpu.intInstQueueWrites                   44845                       # Number of integer instruction queue writes (Count)
system.cpu.intInstQueueWakeupAccesses           29086                       # Number of integer instruction queue wakeup accesses (Count)
system.cpu.fpInstQueueReads                      4296                       # Number of floating instruction queue reads (Count)
system.cpu.fpInstQueueWrites                     2563                       # Number of floating instruction queue writes (Count)
system.cpu.fpInstQueueWakeupAccesses             2064                       # Number of floating instruction queue wakeup accesses (Count)
system.cpu.vecInstQueueReads                        0                       # Number of vector instruction queue reads (Count)
system.cpu.vecInstQueueWrites                       0                       # Number of vector instruction queue writes (Count)
system.cpu.vecInstQueueWakeupAccesses               0                       # Number of vector instruction queue wakeup accesses (Count)
system.cpu.intAluAccesses                       30637                       # Number of integer alu accesses (Count)
system.cpu.fpAluAccesses                         2197                       # Number of floating point alu accesses (Count)
system.cpu.vecAluAccesses                           0                       # Number of vector alu accesses (Count)
system.cpu.numSquashedInsts                       409                       # Number of squashed instructions skipped in execute (Count)
system.cpu.numSwp                                   0                       # Number of swp insts executed (Count)
system.cpu.timesIdled                             247                       # Number of times that the entire CPU went into an idle state and unscheduled itself (Count)
system.cpu.idleCycles                           25837                       # Total number of cycles that the CPU has spent unscheduled due to idling (Cycle)
system.cpu.MemDepUnit__0.insertedLoads           6098                       # Number of loads inserted to the mem dependence unit. (Count)
system.cpu.MemDepUnit__0.insertedStores          2741                       # Number of stores inserted to the mem dependence unit. (Count)
system.cpu.MemDepUnit__0.conflictingLoads          446                       # Number of conflicting loads. (Count)
system.cpu.MemDepUnit__0.conflictingStores          117                       # Number of conflicting stores. (Count)
system.cpu.MemDepUnit__1.insertedLoads              0                       # Number of loads inserted to the mem dependence unit. (Count)
system.cpu.MemDepUnit__1.insertedStores             0                       # Number of stores inserted to the mem dependence unit. (Count)
system.cpu.MemDepUnit__1.conflictingLoads            0                       # Number of conflicting loads. (Count)
system.cpu.MemDepUnit__1.conflictingStores            0                       # Number of conflicting stores. (Count)
system.cpu.MemDepUnit__2.insertedLoads              0                       # Number of loads inserted to the mem dependence unit. (Count)
system.cpu.MemDepUnit__2.insertedStores             0                       # Number of stores inserted to the mem dependence unit. (Count)
system.cpu.MemDepUnit__2.conflictingLoads            0                       # Number of conflicting loads. (Count)
system.cpu.MemDepUnit__2.conflictingStores            0                       # Number of conflicting stores. (Count)
system.cpu.MemDepUnit__3.insertedLoads              0                       # Number of loads inserted to the mem dependence unit. (Count)
system.cpu.MemDepUnit__3.insertedStores             0                       # Number of stores inserted to the mem dependence unit. (Count)
system.cpu.MemDepUnit__3.conflictingLoads            0                       # Number of conflicting loads. (Count)
system.cpu.MemDepUnit__3.conflictingStores            0                       # Number of conflicting stores. (Count)
system.cpu.branchPred.lookups_0::NoBranch            4      0.11%      0.11% # Number of BP lookups (Count)
system.cpu.branchPred.lookups_0::Return           241      6.56%      6.67% # Number of BP lookups (Count)
system.cpu.branchPred.lookups_0::CallDirect          247      6.72%     13.40% # Number of BP lookups (Count)
system.cpu.branchPred.lookups_0::CallIndirect           27      0.74%     14.13% # Number of BP lookups (Count)
system.cpu.branchPred.lookups_0::DirectCond         2389     65.04%     79.17% # Number of BP lookups (Count)
system.cpu.branchPred.lookups_0::DirectUncond          267      7.27%     86.44% # Number of BP lookups (Count)
system.cpu.branchPred.lookups_0::IndirectCond            0      0.00%     86.44% # Number of BP lookups (Count)
system.cpu.branchPred.lookups_0::IndirectUncond          498     13.56%    100.00% # Number of BP lookups (Count)
system.cpu.branchPred.lookups_0::total           3673                       # Number of BP lookups (Count)
system.cpu.branchPred.squashes_0::NoBranch            3      0.18%      0.18% # Number of branches that got squashed (completely removed) as an earlier branch was mispredicted. (Count)
system.cpu.branchPred.squashes_0::Return           93      5.68%      5.87% # Number of branches that got squashed (completely removed) as an earlier branch was mispredicted. (Count)
system.cpu.branchPred.squashes_0::CallDirect          121      7.40%     13.26% # Number of branches that got squashed (completely removed) as an earlier branch was mispredicted. (Count)
system.cpu.branchPred.squashes_0::CallIndirect            4      0.24%     13.51% # Number of branches that got squashed (completely removed) as an earlier branch was mispredicted. (Count)
system.cpu.branchPred.squashes_0::DirectCond          839     51.28%     64.79% # Number of branches that got squashed (completely removed) as an earlier branch was mispredicted. (Count)
system.cpu.branchPred.squashes_0::DirectUncond          156      9.54%     74.33% # Number of branches that got squashed (completely removed) as an earlier branch was mispredicted. (Count)
system.cpu.branchPred.squashes_0::IndirectCond            0      0.00%     74.33% # Number of branches that got squashed (completely removed) as an earlier branch was mispredicted. (Count)
system.cpu.branchPred.squashes_0::IndirectUncond          420     25.67%    100.00% # Number of branches that got squashed (completely removed) as an earlier branch was mispredicted. (Count)
system.cpu.branchPred.squashes_0::total          1636                       # Number of branches that got squashed (completely removed) as an earlier branch was mispredicted. (Count)
system.cpu.branchPred.corrected_0::NoBranch            2      0.48%      0.48% # Number of branches that got corrected but not yet commited. Branches get corrected by decode or after execute. Also a branch misprediction can be detected out-of-order. Therefore, a corrected branch might not end up beeing committed in case an even earlier branch was mispredicted (Count)
system.cpu.branchPred.corrected_0::Return            0      0.00%      0.48% # Number of branches that got corrected but not yet commited. Branches get corrected by decode or after execute. Also a branch misprediction can be detected out-of-order. Therefore, a corrected branch might not end up beeing committed in case an even earlier branch was mispredicted (Count)
system.cpu.branchPred.corrected_0::CallDirect           67     16.07%     16.55% # Number of branches that got corrected but not yet commited. Branches get corrected by decode or after execute. Also a branch misprediction can be detected out-of-order. Therefore, a corrected branch might not end up beeing committed in case an even earlier branch was mispredicted (Count)
system.cpu.branchPred.corrected_0::CallIndirect           17      4.08%     20.62% # Number of branches that got corrected but not yet commited. Branches get corrected by decode or after execute. Also a branch misprediction can be detected out-of-order. Therefore, a corrected branch might not end up beeing committed in case an even earlier branch was mispredicted (Count)
system.cpu.branchPred.corrected_0::DirectCond          193     46.28%     66.91% # Number of branches that got corrected but not yet commited. Branches get corrected by decode or after execute. Also a branch misprediction can be detected out-of-order. Therefore, a corrected branch might not end up beeing committed in case an even earlier branch was mispredicted (Count)
system.cpu.branchPred.corrected_0::DirectUncond           68     16.31%     83.21% # Number of branches that got corrected but not yet commited. Branches get corrected by decode or after execute. Also a branch misprediction can be detected out-of-order. Therefore, a corrected branch might not end up beeing committed in case an even earlier branch was mispredicted (Count)
system.cpu.branchPred.corrected_0::IndirectCond            0      0.00%     83.21% # Number of branches that got corrected but not yet commited. Branches get corrected by decode or after execute. Also a branch misprediction can be detected out-of-order. Therefore, a corrected branch might not end up beeing committed in case an even earlier branch was mispredicted (Count)
system.cpu.branchPred.corrected_0::IndirectUncond           70     16.79%    100.00% # Number of branches that got corrected but not yet commited. Branches get corrected by decode or after execute. Also a branch misprediction can be detected out-of-order. Therefore, a corrected branch might not end up beeing committed in case an even earlier branch was mispredicted (Count)
system.cpu.branchPred.corrected_0::total          417                       # Number of branches that got corrected but not yet commited. Branches get corrected by decode or after execute. Also a branch misprediction can be detected out-of-order. Therefore, a corrected branch might not end up beeing committed in case an even earlier branch was mispredicted (Count)
system.cpu.branchPred.earlyResteers_0::NoBranch            0                       # Number of branches that got redirected after decode. (Count)
system.cpu.branchPred.earlyResteers_0::Return            0                       # Number of branches that got redirected after decode. (Count)
system.cpu.branchPred.earlyResteers_0::CallDirect            0                       # Number of branches that got redirected after decode. (Count)
system.cpu.branchPred.earlyResteers_0::CallIndirect            0                       # Number of branches that got redirected after decode. (Count)
system.cpu.branchPred.earlyResteers_0::DirectCond            0                       # Number of branches that got redirected after decode. (Count)
system.cpu.branchPred.earlyResteers_0::DirectUncond            0                       # Number of branches that got redirected after decode. (Count)
system.cpu.branchPred.earlyResteers_0::IndirectCond            0                       # Number of branches that got redirected after decode. (Count)
system.cpu.branchPred.earlyResteers_0::IndirectUncond            0                       # Number of branches that got redirected after decode. (Count)
system.cpu.branchPred.earlyResteers_0::total            0                       # Number of branches that got redirected after decode. (Count)
system.cpu.branchPred.committed_0::NoBranch            1      0.05%      0.05% # Number of branches finally committed  (Count)
system.cpu.branchPred.committed_0::Return          149      7.31%      7.36% # Number of branches finally committed  (Count)
system.cpu.branchPred.committed_0::CallDirect          126      6.18%     13.54% # Number of branches finally committed  (Count)
system.cpu.branchPred.committed_0::CallIndirect           23      1.13%     14.67% # Number of branches finally committed  (Count)
system.cpu.branchPred.committed_0::DirectCond         1550     76.05%     90.73% # Number of branches finally committed  (Count)
system.cpu.branchPred.committed_0::DirectUncond          111      5.45%     96.17% # Number of branches finally committed  (Count)
system.cpu.branchPred.committed_0::IndirectCond            0      0.00%     96.17% # Number of branches finally committed  (Count)
system.cpu.branchPred.committed_0::IndirectUncond           78      3.83%    100.00% # Number of branches finally committed  (Count)
system.cpu.branchPred.committed_0::total         2038                       # Number of branches finally committed  (Count)
system.cpu.branchPred.mispredicted_0::NoBranch            1      0.30%      0.30% # Number of committed branches that were mispredicted. (Count)
system.cpu.branchPred.mispredicted_0::Return            0      0.00%      0.30% # Number of committed branches that were mispredicted. (Count)
system.cpu.branchPred.mispredicted_0::CallDirect           46     13.86%     14.16% # Number of committed branches that were mispredicted. (Count)
system.cpu.branchPred.mispredicted_0::CallIndirect           17      5.12%     19.28% # Number of committed branches that were mispredicted. (Count)
system.cpu.branchPred.mispredicted_0::DirectCond          168     50.60%     69.88% # Number of committed branches that were mispredicted. (Count)
system.cpu.branchPred.mispredicted_0::DirectUncond           37     11.14%     81.02% # Number of committed branches that were mispredicted. (Count)
system.cpu.branchPred.mispredicted_0::IndirectCond            0      0.00%     81.02% # Number of committed branches that were mispredicted. (Count)
system.cpu.branchPred.mispredicted_0::IndirectUncond           63     18.98%    100.00% # Number of committed branches that were mispredicted. (Count)
system.cpu.branchPred.mispredicted_0::total          332                       # Number of committed branches that were mispredicted. (Count)
system.cpu.branchPred.targetProvider_0::NoTarget         2179     59.32%     59.32% # The component providing the target for taken branches (Count)
system.cpu.branchPred.targetProvider_0::BTB         1221     33.24%     92.57% # The component providing the target for taken branches (Count)
system.cpu.branchPred.targetProvider_0::RAS          241      6.56%     99.13% # The component providing the target for taken branches (Count)
system.cpu.branchPred.targetProvider_0::Indirect           32      0.87%    100.00% # The component providing the target for taken branches (Count)
system.cpu.branchPred.targetProvider_0::total         3673                       # The component providing the target for taken branches (Count)
system.cpu.branchPred.targetWrong_0::NoBranch          361     88.70%     88.70% # Number of branches where the target was incorrect or not available at prediction time. (Count)
system.cpu.branchPred.targetWrong_0::Return           41     10.07%     98.77% # Number of branches where the target was incorrect or not available at prediction time. (Count)
system.cpu.branchPred.targetWrong_0::CallDirect            0      0.00%     98.77% # Number of branches where the target was incorrect or not available at prediction time. (Count)
system.cpu.branchPred.targetWrong_0::CallIndirect            5      1.23%    100.00% # Number of branches where the target was incorrect or not available at prediction time. (Count)
system.cpu.branchPred.targetWrong_0::DirectCond            0      0.00%    100.00% # Number of branches where the target was incorrect or not available at prediction time. (Count)
system.cpu.branchPred.targetWrong_0::DirectUncond            0      0.00%    100.00% # Number of branches where the target was incorrect or not available at prediction time. (Count)
system.cpu.branchPred.targetWrong_0::IndirectCond            0      0.00%    100.00% # Number of branches where the target was incorrect or not available at prediction time. (Count)
system.cpu.branchPred.targetWrong_0::IndirectUncond            0      0.00%    100.00% # Number of branches where the target was incorrect or not available at prediction time. (Count)
system.cpu.branchPred.targetWrong_0::total          407                       # Number of branches where the target was incorrect or not available at prediction time. (Count)
system.cpu.branchPred.condPredicted              2393                       # Number of conditional branches predicted (Count)
system.cpu.branchPred.condPredictedTaken         1104                       # Number of conditional branches predicted as taken (Count)
system.cpu.branchPred.condIncorrect               417                       # Number of conditional branches incorrect (Count)
system.cpu.branchPred.predTakenBTBMiss            176                       # Number of branches predicted taken but missed in BTB (Count)
system.cpu.branchPred.NotTakenMispredicted          372                       # Number branches predicted 'not taken' but turned out to be taken (Count)
system.cpu.branchPred.TakenMispredicted            45                       # Number branches predicted taken but are actually not taken (Count)
system.cpu.branchPred.BTBLookups                 3673                       # Number of BTB lookups (Count)
system.cpu.branchPred.BTBUpdates                  283                       # Number of BTB updates (Count)
system.cpu.branchPred.BTBHits                    1557                       # Number of BTB hits (Count)
system.cpu.branchPred.BTBHitRatio            0.423904                       # BTB Hit Ratio (Ratio)
system.cpu.branchPred.BTBMispredicted             240                       # Number BTB mispredictions. No target found or target wrong (Count)
system.cpu.branchPred.indirectLookups             525                       # Number of indirect predictor lookups. (Count)
system.cpu.branchPred.indirectHits                 32                       # Number of indirect target hits. (Count)
system.cpu.branchPred.indirectMisses              493                       # Number of indirect misses. (Count)
system.cpu.branchPred.indirectMispredicted            0                       # Number of mispredicted indirect branches. (Count)
system.cpu.branchPred.btb.lookups::NoBranch            4      0.11%      0.11% # Number of BTB lookups (Count)
system.cpu.branchPred.btb.lookups::Return          241      6.56%      6.67% # Number of BTB lookups (Count)
system.cpu.branchPred.btb.lookups::CallDirect          247      6.72%     13.40% # Number of BTB lookups (Count)
system.cpu.branchPred.btb.lookups::CallIndirect           27      0.74%     14.13% # Number of BTB lookups (Count)
system.cpu.branchPred.btb.lookups::DirectCond         2389     65.04%     79.17% # Number of BTB lookups (Count)
system.cpu.branchPred.btb.lookups::DirectUncond          267      7.27%     86.44% # Number of BTB lookups (Count)
system.cpu.branchPred.btb.lookups::IndirectCond            0      0.00%     86.44% # Number of BTB lookups (Count)
system.cpu.branchPred.btb.lookups::IndirectUncond          498     13.56%    100.00% # Number of BTB lookups (Count)
system.cpu.branchPred.btb.lookups::total         3673                       # Number of BTB lookups (Count)
system.cpu.branchPred.btb.misses::NoBranch            2      0.09%      0.09% # Number of BTB misses (Count)
system.cpu.branchPred.btb.misses::Return          241     11.39%     11.48% # Number of BTB misses (Count)
system.cpu.branchPred.btb.misses::CallDirect          104      4.91%     16.40% # Number of BTB misses (Count)
system.cpu.branchPred.btb.misses::CallIndirect           27      1.28%     17.67% # Number of BTB misses (Count)
system.cpu.branchPred.btb.misses::DirectCond         1145     54.11%     71.79% # Number of BTB misses (Count)
system.cpu.branchPred.btb.misses::DirectUncond           99      4.68%     76.47% # Number of BTB misses (Count)
system.cpu.branchPred.btb.misses::IndirectCond            0      0.00%     76.47% # Number of BTB misses (Count)
system.cpu.branchPred.btb.misses::IndirectUncond          498     23.53%    100.00% # Number of BTB misses (Count)
system.cpu.branchPred.btb.misses::total          2116                       # Number of BTB misses (Count)
system.cpu.branchPred.btb.updates::NoBranch            0      0.00%      0.00% # Number of BTB updates (Count)
system.cpu.branchPred.btb.updates::Return            0      0.00%      0.00% # Number of BTB updates (Count)
system.cpu.branchPred.btb.updates::CallDirect           67     23.67%     23.67% # Number of BTB updates (Count)
system.cpu.branchPred.btb.updates::CallIndirect            0      0.00%     23.67% # Number of BTB updates (Count)
system.cpu.branchPred.btb.updates::DirectCond          148     52.30%     75.97% # Number of BTB updates (Count)
system.cpu.branchPred.btb.updates::DirectUncond           68     24.03%    100.00% # Number of BTB updates (Count)
system.cpu.branchPred.btb.updates::IndirectCond            0      0.00%    100.00% # Number of BTB updates (Count)
system.cpu.branchPred.btb.updates::IndirectUncond            0      0.00%    100.00% # Number of BTB updates (Count)
system.cpu.branchPred.btb.updates::total          283                       # Number of BTB updates (Count)
system.cpu.branchPred.btb.mispredict::NoBranch            0      0.00%      0.00% # Number of BTB mispredictions. No target found or target wrong. (Count)
system.cpu.branchPred.btb.mispredict::Return            0      0.00%      0.00% # Number of BTB mispredictions. No target found or target wrong. (Count)
system.cpu.branchPred.btb.mispredict::CallDirect           67     23.67%     23.67% # Number of BTB mispredictions. No target found or target wrong. (Count)
system.cpu.branchPred.btb.mispredict::CallIndirect            0      0.00%     23.67% # Number of BTB mispredictions. No target found or target wrong. (Count)
system.cpu.branchPred.btb.mispredict::DirectCond          148     52.30%     75.97% # Number of BTB mispredictions. No target found or target wrong. (Count)
system.cpu.branchPred.btb.mispredict::DirectUncond           68     24.03%    100.00% # Number of BTB mispredictions. No target found or target wrong. (Count)
system.cpu.branchPred.btb.mispredict::IndirectCond            0      0.00%    100.00% # Number of BTB mispredictions. No target found or target wrong. (Count)
system.cpu.branchPred.btb.mispredict::IndirectUncond            0      0.00%    100.00% # Number of BTB mispredictions. No target found or target wrong. (Count)
system.cpu.branchPred.btb.mispredict::total          283                       # Number of BTB mispredictions. No target found or target wrong. (Count)
system.cpu.branchPred.btb.power_state.pwrStateResidencyTicks::UNDEFINED   1315946500                       # Cumulative time (in ticks) in various power states (Tick)
system.cpu.branchPred.indirectBranchPred.lookups          525                       # Number of lookups (Count)
system.cpu.branchPred.indirectBranchPred.hits           32                       # Number of hits of a tag (Count)
system.cpu.branchPred.indirectBranchPred.misses          493                       # Number of misses (Count)
system.cpu.branchPred.indirectBranchPred.targetRecords           87                       # Number of targets that where recorded/installed in the cache (Count)
system.cpu.branchPred.indirectBranchPred.indirectRecords          612                       # Number of indirect branches/calls recorded in the indirect hist (Count)
system.cpu.branchPred.indirectBranchPred.speculativeOverflows            0                       # Number of times more than the allowed capacity for speculative branches/calls where in flight and destroy the path history (Count)
system.cpu.branchPred.ras.pushes                  367                       # Number of times a PC was pushed onto the RAS (Count)
system.cpu.branchPred.ras.pops                    366                       # Number of times a PC was poped from the RAS (Count)
system.cpu.branchPred.ras.squashes                218                       # Number of times the stack operation was squashed due to wrong speculation. (Count)
system.cpu.branchPred.ras.used                    149                       # Number of times the RAS is the provider (Count)
system.cpu.branchPred.ras.correct                 149                       # Number of times the RAS is the provider and the prediction is correct (Count)
system.cpu.branchPred.ras.incorrect                 0                       # Number of times the RAS is the provider and the prediction is wrong (Count)
system.cpu.commit.commitSquashedInsts           11301                       # The number of squashed insts skipped by commit (Count)
system.cpu.commit.commitNonSpecStalls             112                       # The number of times commit has been forced to stall to communicate backwards (Count)
system.cpu.commit.branchMispredicts               381                       # The number of times a branch was mispredicted (Count)
system.cpu.commit.numCommittedDist::samples        26837                       # Number of insts commited each cycle (Count)
system.cpu.commit.numCommittedDist::mean     0.919402                       # Number of insts commited each cycle (Count)
system.cpu.commit.numCommittedDist::stdev     1.950924                       # Number of insts commited each cycle (Count)
system.cpu.commit.numCommittedDist::underflows            0      0.00%      0.00% # Number of insts commited each cycle (Count)
system.cpu.commit.numCommittedDist::0           19515     72.72%     72.72% # Number of insts commited each cycle (Count)
system.cpu.commit.numCommittedDist::1            2188      8.15%     80.87% # Number of insts commited each cycle (Count)
system.cpu.commit.numCommittedDist::2            1019      3.80%     84.67% # Number of insts commited each cycle (Count)
system.cpu.commit.numCommittedDist::3            1559      5.81%     90.48% # Number of insts commited each cycle (Count)
system.cpu.commit.numCommittedDist::4             608      2.27%     92.74% # Number of insts commited each cycle (Count)
system.cpu.commit.numCommittedDist::5             576      2.15%     94.89% # Number of insts commited each cycle (Count)
system.cpu.commit.numCommittedDist::6             175      0.65%     95.54% # Number of insts commited each cycle (Count)
system.cpu.commit.numCommittedDist::7             167      0.62%     96.16% # Number of insts commited each cycle (Count)
system.cpu.commit.numCommittedDist::8            1030      3.84%    100.00% # Number of insts commited each cycle (Count)
system.cpu.commit.numCommittedDist::overflows            0      0.00%    100.00% # Number of insts commited each cycle (Count)
system.cpu.commit.numCommittedDist::min_value            0                       # Number of insts commited each cycle (Count)
system.cpu.commit.numCommittedDist::max_value            8                       # Number of insts commited each cycle (Count)
system.cpu.commit.numCommittedDist::total        26837                       # Number of insts commited each cycle (Count)
system.cpu.commit.amos                              0                       # Number of atomic instructions committed (Count)
system.cpu.commit.membars                          28                       # Number of memory barriers committed (Count)
system.cpu.commit.functionCalls                   149                       # Number of function calls committed. (Count)
system.cpu.commit.committedInstType_0::No_OpClass          229      0.93%      0.93% # Class of committed instruction (Count)
system.cpu.commit.committedInstType_0::IntAlu        17184     69.64%     70.57% # Class of committed instruction (Count)
system.cpu.commit.committedInstType_0::IntMult           33      0.13%     70.71% # Class of committed instruction (Count)
system.cpu.commit.committedInstType_0::IntDiv          108      0.44%     71.14% # Class of committed instruction (Count)
system.cpu.commit.committedInstType_0::FloatAdd          175      0.71%     71.85% # Class of committed instruction (Count)
system.cpu.commit.committedInstType_0::FloatCmp            0      0.00%     71.85% # Class of committed instruction (Count)
system.cpu.commit.committedInstType_0::FloatCvt          112      0.45%     72.31% # Class of committed instruction (Count)
system.cpu.commit.committedInstType_0::FloatMult            0      0.00%     72.31% # Class of committed instruction (Count)
system.cpu.commit.committedInstType_0::FloatMultAcc            0      0.00%     72.31% # Class of committed instruction (Count)
system.cpu.commit.committedInstType_0::FloatDiv            0      0.00%     72.31% # Class of committed instruction (Count)
system.cpu.commit.committedInstType_0::FloatMisc            0      0.00%     72.31% # Class of committed instruction (Count)
system.cpu.commit.committedInstType_0::FloatSqrt            0      0.00%     72.31% # Class of committed instruction (Count)
system.cpu.commit.committedInstType_0::SimdAdd           24      0.10%     72.40% # Class of committed instruction (Count)
system.cpu.commit.committedInstType_0::SimdAddAcc            0      0.00%     72.40% # Class of committed instruction (Count)
system.cpu.commit.committedInstType_0::SimdAlu           64      0.26%     72.66% # Class of committed instruction (Count)
system.cpu.commit.committedInstType_0::SimdCmp            0      0.00%     72.66% # Class of committed instruction (Count)
system.cpu.commit.committedInstType_0::SimdCvt           60      0.24%     72.91% # Class of committed instruction (Count)
system.cpu.commit.committedInstType_0::SimdMisc           73      0.30%     73.20% # Class of committed instruction (Count)
system.cpu.commit.committedInstType_0::SimdMult            0      0.00%     73.20% # Class of committed instruction (Count)
system.cpu.commit.committedInstType_0::SimdMultAcc            0      0.00%     73.20% # Class of committed instruction (Count)
system.cpu.commit.committedInstType_0::SimdMatMultAcc            0      0.00%     73.20% # Class of committed instruction (Count)
system.cpu.commit.committedInstType_0::SimdShift            7      0.03%     73.23% # Class of committed instruction (Count)
system.cpu.commit.committedInstType_0::SimdShiftAcc            0      0.00%     73.23% # Class of committed instruction (Count)
system.cpu.commit.committedInstType_0::SimdDiv            0      0.00%     73.23% # Class of committed instruction (Count)
system.cpu.commit.committedInstType_0::SimdSqrt            0      0.00%     73.23% # Class of committed instruction (Count)
system.cpu.commit.committedInstType_0::SimdFloatAdd          300      1.22%     74.45% # Class of committed instruction (Count)
system.cpu.commit.committedInstType_0::SimdFloatAlu            0      0.00%     74.45% # Class of committed instruction (Count)
system.cpu.commit.committedInstType_0::SimdFloatCmp            0      0.00%     74.45% # Class of committed instruction (Count)
system.cpu.commit.committedInstType_0::SimdFloatCvt            3      0.01%     74.46% # Class of committed instruction (Count)
system.cpu.commit.committedInstType_0::SimdFloatDiv            1      0.00%     74.46% # Class of committed instruction (Count)
system.cpu.commit.committedInstType_0::SimdFloatMisc            0      0.00%     74.46% # Class of committed instruction (Count)
system.cpu.commit.committedInstType_0::SimdFloatMult            0      0.00%     74.46% # Class of committed instruction (Count)
system.cpu.commit.committedInstType_0::SimdFloatMultAcc            0      0.00%     74.46% # Class of committed instruction (Count)
system.cpu.commit.committedInstType_0::SimdFloatMatMultAcc            0      0.00%     74.46% # Class of committed instruction (Count)
system.cpu.commit.committedInstType_0::SimdFloatSqrt            0      0.00%     74.46% # Class of committed instruction (Count)
system.cpu.commit.committedInstType_0::SimdReduceAdd            0      0.00%     74.46% # Class of committed instruction (Count)
system.cpu.commit.committedInstType_0::SimdReduceAlu            0      0.00%     74.46% # Class of committed instruction (Count)
system.cpu.commit.committedInstType_0::SimdReduceCmp            0      0.00%     74.46% # Class of committed instruction (Count)
system.cpu.commit.committedInstType_0::SimdFloatReduceAdd            0      0.00%     74.46% # Class of committed instruction (Count)
system.cpu.commit.committedInstType_0::SimdFloatReduceCmp            0      0.00%     74.46% # Class of committed instruction (Count)
system.cpu.commit.committedInstType_0::SimdAes            0      0.00%     74.46% # Class of committed instruction (Count)
system.cpu.commit.committedInstType_0::SimdAesMix            0      0.00%     74.46% # Class of committed instruction (Count)
system.cpu.commit.committedInstType_0::SimdSha1Hash            0      0.00%     74.46% # Class of committed instruction (Count)
system.cpu.commit.committedInstType_0::SimdSha1Hash2            0      0.00%     74.46% # Class of committed instruction (Count)
system.cpu.commit.committedInstType_0::SimdSha256Hash            0      0.00%     74.46% # Class of committed instruction (Count)
system.cpu.commit.committedInstType_0::SimdSha256Hash2            0      0.00%     74.46% # Class of committed instruction (Count)
system.cpu.commit.committedInstType_0::SimdShaSigma2            0      0.00%     74.46% # Class of committed instruction (Count)
system.cpu.commit.committedInstType_0::SimdShaSigma3            0      0.00%     74.46% # Class of committed instruction (Count)
system.cpu.commit.committedInstType_0::SimdPredAlu            0      0.00%     74.46% # Class of committed instruction (Count)
system.cpu.commit.committedInstType_0::Matrix            0      0.00%     74.46% # Class of committed instruction (Count)
system.cpu.commit.committedInstType_0::MatrixMov            0      0.00%     74.46% # Class of committed instruction (Count)
system.cpu.commit.committedInstType_0::MatrixOP            0      0.00%     74.46% # Class of committed instruction (Count)
system.cpu.commit.committedInstType_0::MemRead         3675     14.89%     89.36% # Class of committed instruction (Count)
system.cpu.commit.committedInstType_0::MemWrite         1542      6.25%     95.61% # Class of committed instruction (Count)
system.cpu.commit.committedInstType_0::FloatMemRead          695      2.82%     98.42% # Class of committed instruction (Count)
system.cpu.commit.committedInstType_0::FloatMemWrite          389      1.58%    100.00% # Class of committed instruction (Count)
system.cpu.commit.committedInstType_0::IprAccess            0      0.00%    100.00% # Class of committed instruction (Count)
system.cpu.commit.committedInstType_0::InstPrefetch            0      0.00%    100.00% # Class of committed instruction (Count)
system.cpu.commit.committedInstType_0::VectorUnitStrideLoad            0      0.00%    100.00% # Class of committed instruction (Count)
system.cpu.commit.committedInstType_0::VectorUnitStrideStore            0      0.00%    100.00% # Class of committed instruction (Count)
system.cpu.commit.committedInstType_0::VectorUnitStrideMaskLoad            0      0.00%    100.00% # Class of committed instruction (Count)
system.cpu.commit.committedInstType_0::VectorUnitStrideMaskStore            0      0.00%    100.00% # Class of committed instruction (Count)
system.cpu.commit.committedInstType_0::VectorStridedLoad            0      0.00%    100.00% # Class of committed instruction (Count)
system.cpu.commit.committedInstType_0::VectorStridedStore            0      0.00%    100.00% # Class of committed instruction (Count)
system.cpu.commit.committedInstType_0::VectorIndexedLoad            0      0.00%    100.00% # Class of committed instruction (Count)
system.cpu.commit.committedInstType_0::VectorIndexedStore            0      0.00%    100.00% # Class of committed instruction (Count)
system.cpu.commit.committedInstType_0::VectorUnitStrideFaultOnlyFirstLoad            0      0.00%    100.00% # Class of committed instruction (Count)
system.cpu.commit.committedInstType_0::VectorWholeRegisterLoad            0      0.00%    100.00% # Class of committed instruction (Count)
system.cpu.commit.committedInstType_0::VectorWholeRegisterStore            0      0.00%    100.00% # Class of committed instruction (Count)
system.cpu.commit.committedInstType_0::VectorIntegerArith            0      0.00%    100.00% # Class of committed instruction (Count)
system.cpu.commit.committedInstType_0::VectorFloatArith            0      0.00%    100.00% # Class of committed instruction (Count)
system.cpu.commit.committedInstType_0::VectorFloatConvert            0      0.00%    100.00% # Class of committed instruction (Count)
system.cpu.commit.committedInstType_0::VectorIntegerReduce            0      0.00%    100.00% # Class of committed instruction (Count)
system.cpu.commit.committedInstType_0::VectorFloatReduce            0      0.00%    100.00% # Class of committed instruction (Count)
system.cpu.commit.committedInstType_0::VectorMisc            0      0.00%    100.00% # Class of committed instruction (Count)
system.cpu.commit.committedInstType_0::VectorIntegerExtension            0      0.00%    100.00% # Class of committed instruction (Count)
system.cpu.commit.committedInstType_0::VectorConfig            0      0.00%    100.00% # Class of committed instruction (Count)
system.cpu.commit.committedInstType_0::total        24674                       # Class of committed instruction (Count)
system.cpu.commit.commitEligibleSamples          1030                       # number cycles where commit BW limit reached (Cycle)
system.cpu.commitStats0.numInsts                13036                       # Number of instructions committed (thread level) (Count)
system.cpu.commitStats0.numOps                  24674                       # Number of ops (including micro ops) committed (thread level) (Count)
system.cpu.commitStats0.numInstsNotNOP          13036                       # Number of instructions committed excluding NOPs or prefetches (Count)
system.cpu.commitStats0.numOpsNotNOP            24674                       # Number of Ops (including micro ops) Simulated (Count)
system.cpu.commitStats0.cpi                  4.177432                       # CPI: cycles per instruction (thread level) ((Cycle/Count))
system.cpu.commitStats0.ipc                  0.239382                       # IPC: instructions per cycle (thread level) ((Count/Cycle))
system.cpu.commitStats0.numMemRefs               6301                       # Number of memory references committed (Count)
system.cpu.commitStats0.numFpInsts               1919                       # Number of float instructions (Count)
system.cpu.commitStats0.numIntInsts             23757                       # Number of integer instructions (Count)
system.cpu.commitStats0.numLoadInsts             4370                       # Number of load instructions (Count)
system.cpu.commitStats0.numStoreInsts            1931                       # Number of store instructions (Count)
system.cpu.commitStats0.numVecInsts                 0                       # Number of vector instructions (Count)
system.cpu.commitStats0.committedInstType::No_OpClass          229      0.93%      0.93% # Class of committed instruction. (Count)
system.cpu.commitStats0.committedInstType::IntAlu        17184     69.64%     70.57% # Class of committed instruction. (Count)
system.cpu.commitStats0.committedInstType::IntMult           33      0.13%     70.71% # Class of committed instruction. (Count)
system.cpu.commitStats0.committedInstType::IntDiv          108      0.44%     71.14% # Class of committed instruction. (Count)
system.cpu.commitStats0.committedInstType::FloatAdd          175      0.71%     71.85% # Class of committed instruction. (Count)
system.cpu.commitStats0.committedInstType::FloatCmp            0      0.00%     71.85% # Class of committed instruction. (Count)
system.cpu.commitStats0.committedInstType::FloatCvt          112      0.45%     72.31% # Class of committed instruction. (Count)
system.cpu.commitStats0.committedInstType::FloatMult            0      0.00%     72.31% # Class of committed instruction. (Count)
system.cpu.commitStats0.committedInstType::FloatMultAcc            0      0.00%     72.31% # Class of committed instruction. (Count)
system.cpu.commitStats0.committedInstType::FloatDiv            0      0.00%     72.31% # Class of committed instruction. (Count)
system.cpu.commitStats0.committedInstType::FloatMisc            0      0.00%     72.31% # Class of committed instruction. (Count)
system.cpu.commitStats0.committedInstType::FloatSqrt            0      0.00%     72.31% # Class of committed instruction. (Count)
system.cpu.commitStats0.committedInstType::SimdAdd           24      0.10%     72.40% # Class of committed instruction. (Count)
system.cpu.commitStats0.committedInstType::SimdAddAcc            0      0.00%     72.40% # Class of committed instruction. (Count)
system.cpu.commitStats0.committedInstType::SimdAlu           64      0.26%     72.66% # Class of committed instruction. (Count)
system.cpu.commitStats0.committedInstType::SimdCmp            0      0.00%     72.66% # Class of committed instruction. (Count)
system.cpu.commitStats0.committedInstType::SimdCvt           60      0.24%     72.91% # Class of committed instruction. (Count)
system.cpu.commitStats0.committedInstType::SimdMisc           73      0.30%     73.20% # Class of committed instruction. (Count)
system.cpu.commitStats0.committedInstType::SimdMult            0      0.00%     73.20% # Class of committed instruction. (Count)
system.cpu.commitStats0.committedInstType::SimdMultAcc            0      0.00%     73.20% # Class of committed instruction. (Count)
system.cpu.commitStats0.committedInstType::SimdMatMultAcc            0      0.00%     73.20% # Class of committed instruction. (Count)
system.cpu.commitStats0.committedInstType::SimdShift            7      0.03%     73.23% # Class of committed instruction. (Count)
system.cpu.commitStats0.committedInstType::SimdShiftAcc            0      0.00%     73.23% # Class of committed instruction. (Count)
system.cpu.commitStats0.committedInstType::SimdDiv            0      0.00%     73.23% # Class of committed instruction. (Count)
system.cpu.commitStats0.committedInstType::SimdSqrt            0      0.00%     73.23% # Class of committed instruction. (Count)
system.cpu.commitStats0.committedInstType::SimdFloatAdd          300      1.22%     74.45% # Class of committed instruction. (Count)
system.cpu.commitStats0.committedInstType::SimdFloatAlu            0      0.00%     74.45% # Class of committed instruction. (Count)
system.cpu.commitStats0.committedInstType::SimdFloatCmp            0      0.00%     74.45% # Class of committed instruction. (Count)
system.cpu.commitStats0.committedInstType::SimdFloatCvt            3      0.01%     74.46% # Class of committed instruction. (Count)
system.cpu.commitStats0.committedInstType::SimdFloatDiv            1      0.00%     74.46% # Class of committed instruction. (Count)
system.cpu.commitStats0.committedInstType::SimdFloatMisc            0      0.00%     74.46% # Class of committed instruction. (Count)
system.cpu.commitStats0.committedInstType::SimdFloatMult            0      0.00%     74.46% # Class of committed instruction. (Count)
system.cpu.commitStats0.committedInstType::SimdFloatMultAcc            0      0.00%     74.46% # Class of committed instruction. (Count)
system.cpu.commitStats0.committedInstType::SimdFloatMatMultAcc            0      0.00%     74.46% # Class of committed instruction. (Count)
system.cpu.commitStats0.committedInstType::SimdFloatSqrt            0      0.00%     74.46% # Class of committed instruction. (Count)
system.cpu.commitStats0.committedInstType::SimdReduceAdd            0      0.00%     74.46% # Class of committed instruction. (Count)
system.cpu.commitStats0.committedInstType::SimdReduceAlu            0      0.00%     74.46% # Class of committed instruction. (Count)
system.cpu.commitStats0.committedInstType::SimdReduceCmp            0      0.00%     74.46% # Class of committed instruction. (Count)
system.cpu.commitStats0.committedInstType::SimdFloatReduceAdd            0      0.00%     74.46% # Class of committed instruction. (Count)
system.cpu.commitStats0.committedInstType::SimdFloatReduceCmp            0      0.00%     74.46% # Class of committed instruction. (Count)
system.cpu.commitStats0.committedInstType::SimdAes            0      0.00%     74.46% # Class of committed instruction. (Count)
system.cpu.commitStats0.committedInstType::SimdAesMix            0      0.00%     74.46% # Class of committed instruction. (Count)
system.cpu.commitStats0.committedInstType::SimdSha1Hash            0      0.00%     74.46% # Class of committed instruction. (Count)
system.cpu.commitStats0.committedInstType::SimdSha1Hash2            0      0.00%     74.46% # Class of committed instruction. (Count)
system.cpu.commitStats0.committedInstType::SimdSha256Hash            0      0.00%     74.46% # Class of committed instruction. (Count)
system.cpu.commitStats0.committedInstType::SimdSha256Hash2            0      0.00%     74.46% # Class of committed instruction. (Count)
system.cpu.commitStats0.committedInstType::SimdShaSigma2            0      0.00%     74.46% # Class of committed instruction. (Count)
system.cpu.commitStats0.committedInstType::SimdShaSigma3            0      0.00%     74.46% # Class of committed instruction. (Count)
system.cpu.commitStats0.committedInstType::SimdPredAlu            0      0.00%     74.46% # Class of committed instruction. (Count)
system.cpu.commitStats0.committedInstType::Matrix            0      0.00%     74.46% # Class of committed instruction. (Count)
system.cpu.commitStats0.committedInstType::MatrixMov            0      0.00%     74.46% # Class of committed instruction. (Count)
system.cpu.commitStats0.committedInstType::MatrixOP            0      0.00%     74.46% # Class of committed instruction. (Count)
system.cpu.commitStats0.committedInstType::MemRead         3675     14.89%     89.36% # Class of committed instruction. (Count)
system.cpu.commitStats0.committedInstType::MemWrite         1542      6.25%     95.61% # Class of committed instruction. (Count)
system.cpu.commitStats0.committedInstType::FloatMemRead          695      2.82%     98.42% # Class of committed instruction. (Count)
system.cpu.commitStats0.committedInstType::FloatMemWrite          389      1.58%    100.00% # Class of committed instruction. (Count)
system.cpu.commitStats0.committedInstType::IprAccess            0      0.00%    100.00% # Class of committed instruction. (Count)
system.cpu.commitStats0.committedInstType::InstPrefetch            0      0.00%    100.00% # Class of committed instruction. (Count)
system.cpu.commitStats0.committedInstType::VectorUnitStrideLoad            0      0.00%    100.00% # Class of committed instruction. (Count)
system.cpu.commitStats0.committedInstType::VectorUnitStrideStore            0      0.00%    100.00% # Class of committed instruction. (Count)
system.cpu.commitStats0.committedInstType::VectorUnitStrideMaskLoad            0      0.00%    100.00% # Class of committed instruction. (Count)
system.cpu.commitStats0.committedInstType::VectorUnitStrideMaskStore            0      0.00%    100.00% # Class of committed instruction. (Count)
system.cpu.commitStats0.committedInstType::VectorStridedLoad            0      0.00%    100.00% # Class of committed instruction. (Count)
system.cpu.commitStats0.committedInstType::VectorStridedStore            0      0.00%    100.00% # Class of committed instruction. (Count)
system.cpu.commitStats0.committedInstType::VectorIndexedLoad            0      0.00%    100.00% # Class of committed instruction. (Count)
system.cpu.commitStats0.committedInstType::VectorIndexedStore            0      0.00%    100.00% # Class of committed instruction. (Count)
system.cpu.commitStats0.committedInstType::VectorUnitStrideFaultOnlyFirstLoad            0      0.00%    100.00% # Class of committed instruction. (Count)
system.cpu.commitStats0.committedInstType::VectorWholeRegisterLoad            0      0.00%    100.00% # Class of committed instruction. (Count)
system.cpu.commitStats0.committedInstType::VectorWholeRegisterStore            0      0.00%    100.00% # Class of committed instruction. (Count)
system.cpu.commitStats0.committedInstType::VectorIntegerArith            0      0.00%    100.00% # Class of committed instruction. (Count)
system.cpu.commitStats0.committedInstType::VectorFloatArith            0      0.00%    100.00% # Class of committed instruction. (Count)
system.cpu.commitStats0.committedInstType::VectorFloatConvert            0      0.00%    100.00% # Class of committed instruction. (Count)
system.cpu.commitStats0.committedInstType::VectorIntegerReduce            0      0.00%    100.00% # Class of committed instruction. (Count)
system.cpu.commitStats0.committedInstType::VectorFloatReduce            0      0.00%    100.00% # Class of committed instruction. (Count)
system.cpu.commitStats0.committedInstType::VectorMisc            0      0.00%    100.00% # Class of committed instruction. (Count)
system.cpu.commitStats0.committedInstType::VectorIntegerExtension            0      0.00%    100.00% # Class of committed instruction. (Count)
system.cpu.commitStats0.committedInstType::VectorConfig            0      0.00%    100.00% # Class of committed instruction. (Count)
system.cpu.commitStats0.committedInstType::total        24674                       # Class of committed instruction. (Count)
system.cpu.commitStats0.committedControl::IsControl         2038                       # Class of control type instructions committed (Count)
system.cpu.commitStats0.committedControl::IsDirectControl         1787                       # Class of control type instructions committed (Count)
system.cpu.commitStats0.committedControl::IsIndirectControl          250                       # Class of control type instructions committed (Count)
system.cpu.commitStats0.committedControl::IsCondControl         1550                       # Class of control type instructions committed (Count)
system.cpu.commitStats0.committedControl::IsUncondControl          487                       # Class of control type instructions committed (Count)
system.cpu.commitStats0.committedControl::IsCall          149                       # Class of control type instructions committed (Count)
system.cpu.commitStats0.committedControl::IsReturn          149                       # Class of control type instructions committed (Count)
system.cpu.dcache.demandHits_0::cpu.data           86                       # number of demand (read+write) hits (Count)
system.cpu.dcache.demandHits_0::total              86                       # number of demand (read+write) hits (Count)
system.cpu.dcache.overallHits_0::cpu.data           86                       # number of overall hits (Count)
system.cpu.dcache.overallHits_0::total             86                       # number of overall hits (Count)
system.cpu.dcache.demandMisses_0::cpu.data           13                       # number of demand (read+write) misses (Count)
system.cpu.dcache.demandMisses_0::total            13                       # number of demand (read+write) misses (Count)
system.cpu.dcache.overallMisses_0::cpu.data           13                       # number of overall misses (Count)
system.cpu.dcache.overallMisses_0::total           13                       # number of overall misses (Count)
system.cpu.dcache.demandMissLatency_0::cpu.data       201500                       # number of demand (read+write) miss ticks (Tick)
system.cpu.dcache.demandMissLatency_0::total       201500                       # number of demand (read+write) miss ticks (Tick)
system.cpu.dcache.overallMissLatency_0::cpu.data       201500                       # number of overall miss ticks (Tick)
system.cpu.dcache.overallMissLatency_0::total       201500                       # number of overall miss ticks (Tick)
system.cpu.dcache.demandAccesses_0::cpu.data           99                       # number of demand (read+write) accesses (Count)
system.cpu.dcache.demandAccesses_0::total           99                       # number of demand (read+write) accesses (Count)
system.cpu.dcache.overallAccesses_0::cpu.data           99                       # number of overall (read+write) accesses (Count)
system.cpu.dcache.overallAccesses_0::total           99                       # number of overall (read+write) accesses (Count)
system.cpu.dcache.demandMissRate_0::cpu.data     0.131313                       # miss rate for demand accesses (Ratio)
system.cpu.dcache.demandMissRate_0::total     0.131313                       # miss rate for demand accesses (Ratio)
system.cpu.dcache.overallMissRate_0::cpu.data     0.131313                       # miss rate for overall accesses (Ratio)
system.cpu.dcache.overallMissRate_0::total     0.131313                       # miss rate for overall accesses (Ratio)
system.cpu.dcache.demandAvgMissLatency_0::cpu.data        15500                       # average overall miss latency in ticks ((Tick/Count))
[...]
system.l3.ReadSharedReq_T.accesses::cpu.inst          308                       # number of ReadSharedReq_T accesses(hits+misses) (Count)
system.l3.ReadSharedReq_T.accesses::cpu.data          111                       # number of ReadSharedReq_T accesses(hits+misses) (Count)
system.l3.ReadSharedReq_T.accesses::cpu.dcache.prefetcher           56                       # number of ReadSharedReq_T accesses(hits+misses) (Count)
system.l3.ReadSharedReq_T.accesses::cpu.l2cache.prefetcher            4                       # number of ReadSharedReq_T accesses(hits+misses) (Count)
system.l3.ReadSharedReq_T.accesses::total          479                       # number of ReadSharedReq_T accesses(hits+misses) (Count)
system.l3.ReadSharedReq_T.missRate::cpu.inst     0.928571                       # miss rate for ReadSharedReq_T accesses (Ratio)
system.l3.ReadSharedReq_T.missRate::cpu.data     0.270270                       # miss rate for ReadSharedReq_T accesses (Ratio)
system.l3.ReadSharedReq_T.missRate::cpu.dcache.prefetcher     0.303571                       # miss rate for ReadSharedReq_T accesses (Ratio)
system.l3.ReadSharedReq_T.missRate::total     0.695198                       # miss rate for ReadSharedReq_T accesses (Ratio)
system.l3.ReadSharedReq_T.avgMissLatency::cpu.inst 69938.811189                       # average ReadSharedReq_T miss latency ((Tick/Count))
system.l3.ReadSharedReq_T.avgMissLatency::cpu.data        79250                       # average ReadSharedReq_T miss latency ((Tick/Count))
system.l3.ReadSharedReq_T.avgMissLatency::cpu.dcache.prefetcher 77470.764706                       # average ReadSharedReq_T miss latency ((Tick/Count))
system.l3.ReadSharedReq_T.avgMissLatency::total 71162.171171                       # average ReadSharedReq_T miss latency ((Tick/Count))
system.l3.ReadSharedReq_T.mshrMisses::cpu.inst          286                       # number of ReadSharedReq_T MSHR misses (Count)
system.l3.ReadSharedReq_T.mshrMisses::cpu.data           30                       # number of ReadSharedReq_T MSHR misses (Count)
system.l3.ReadSharedReq_T.mshrMisses::cpu.dcache.prefetcher           17                       # number of ReadSharedReq_T MSHR misses (Count)
system.l3.ReadSharedReq_T.mshrMisses::total          333                       # number of ReadSharedReq_T MSHR misses (Count)
system.l3.ReadSharedReq_T.mshrMissLatency::cpu.inst     13918690                       # number of ReadSharedReq_T MSHR miss ticks (Tick)
system.l3.ReadSharedReq_T.mshrMissLatency::cpu.data      1740182                       # number of ReadSharedReq_T MSHR miss ticks (Tick)
system.l3.ReadSharedReq_T.mshrMissLatency::cpu.dcache.prefetcher       954947                       # number of ReadSharedReq_T MSHR miss ticks (Tick)
system.l3.ReadSharedReq_T.mshrMissLatency::total     16613819                       # number of ReadSharedReq_T MSHR miss ticks (Tick)
system.l3.ReadSharedReq_T.mshrMissRate::cpu.inst     0.928571                       # mshr miss rate for ReadSharedReq_T accesses (Ratio)
system.l3.ReadSharedReq_T.mshrMissRate::cpu.data     0.270270                       # mshr miss rate for ReadSharedReq_T accesses (Ratio)
system.l3.ReadSharedReq_T.mshrMissRate::cpu.dcache.prefetcher     0.303571                       # mshr miss rate for ReadSharedReq_T accesses (Ratio)
system.l3.ReadSharedReq_T.mshrMissRate::total     0.695198                       # mshr miss rate for ReadSharedReq_T accesses (Ratio)
system.l3.ReadSharedReq_T.avgMshrMissLatency::cpu.inst 48666.748252                       # average ReadSharedReq_T mshr miss latency ((Tick/Count))
system.l3.ReadSharedReq_T.avgMshrMissLatency::cpu.data 58006.066667                       # average ReadSharedReq_T mshr miss latency ((Tick/Count))
system.l3.ReadSharedReq_T.avgMshrMissLatency::cpu.dcache.prefetcher 56173.352941                       # average ReadSharedReq_T mshr miss latency ((Tick/Count))
system.l3.ReadSharedReq_T.avgMshrMissLatency::total 49891.348348                       # average ReadSharedReq_T mshr miss latency ((Tick/Count))
system.l3.power_state.pwrStateResidencyTicks::UNDEFINED   1315953000                       # Cumulative time (in ticks) in various power states (Tick)
system.l3.tags.tagsInUse                 12602.403494                       # Average ticks per tags in use ((Tick/Count))
system.l3.tags.totalRefs                        32100                       # Total number of references to valid blocks. (Count)
system.l3.tags.sampledRefs                      12767                       # Sample count of references to valid blocks. (Count)
system.l3.tags.avgRefs                       2.514295                       # Average number of references to valid blocks. ((Count/Count))
system.l3.tags.warmupTick                           0                       # The tick when the warmup percentage was hit. (Tick)
system.l3.tags.occupancies::cpu.inst      2241.124030                       # Average occupied blocks per tick, per requestor ((Count/Tick))
system.l3.tags.occupancies::cpu.data      6091.400336                       # Average occupied blocks per tick, per requestor ((Count/Tick))
system.l3.tags.occupancies::cpu.dcache.prefetcher  3906.879128                       # Average occupied blocks per tick, per requestor ((Count/Tick))
system.l3.tags.occupancies::cpu.l2cache.prefetcher          363                       # Average occupied blocks per tick, per requestor ((Count/Tick))
system.l3.tags.avgOccs::cpu.inst             0.034197                       # Average percentage of cache occupancy ((Ratio/Tick))
system.l3.tags.avgOccs::cpu.data             0.092947                       # Average percentage of cache occupancy ((Ratio/Tick))
system.l3.tags.avgOccs::cpu.dcache.prefetcher     0.059614                       # Average percentage of cache occupancy ((Ratio/Tick))
system.l3.tags.avgOccs::cpu.l2cache.prefetcher     0.005539                       # Average percentage of cache occupancy ((Ratio/Tick))
system.l3.tags.avgOccs::total                0.192297                       # Average percentage of cache occupancy ((Ratio/Tick))
system.l3.tags.occupanciesTaskId::1022           4278                       # Occupied blocks per task id (Count)
system.l3.tags.occupanciesTaskId::1024           8489                       # Occupied blocks per task id (Count)
system.l3.tags.ageTaskId_1022::0                    5                       # Occupied blocks per task id, per block age (Count)
system.l3.tags.ageTaskId_1022::1                   84                       # Occupied blocks per task id, per block age (Count)
system.l3.tags.ageTaskId_1022::2                 2347                       # Occupied blocks per task id, per block age (Count)
system.l3.tags.ageTaskId_1022::3                 1842                       # Occupied blocks per task id, per block age (Count)
system.l3.tags.ageTaskId_1024::0                  101                       # Occupied blocks per task id, per block age (Count)
system.l3.tags.ageTaskId_1024::1                  892                       # Occupied blocks per task id, per block age (Count)
system.l3.tags.ageTaskId_1024::2                 4108                       # Occupied blocks per task id, per block age (Count)
system.l3.tags.ageTaskId_1024::3                 3388                       # Occupied blocks per task id, per block age (Count)
system.l3.tags.ratioOccsTaskId::1022         0.065277                       # Ratio of occupied blocks and all blocks, per task id (Ratio)
system.l3.tags.ratioOccsTaskId::1024         0.129532                       # Ratio of occupied blocks and all blocks, per task id (Ratio)
system.l3.tags.tagAccesses                      16286                       # Number of tag accesses (Count)
system.l3.tags.dataAccesses                     16286                       # Number of data accesses (Count)
system.l3.tags.power_state.pwrStateResidencyTicks::UNDEFINED   1315953000                       # Cumulative time (in ticks) in various power states (Tick)
system.mem_ctrls.bytesRead::cpu.inst           152384                       # Number of bytes read from this memory (Byte)
system.mem_ctrls.bytesRead::cpu.data           390912                       # Number of bytes read from this memory (Byte)
system.mem_ctrls.bytesRead::cpu.dcache.prefetcher       250560                       # Number of bytes read from this memory (Byte)
system.mem_ctrls.bytesRead::cpu.l2cache.prefetcher        23232                       # Number of bytes read from this memory (Byte)
system.mem_ctrls.bytesRead::total              817088                       # Number of bytes read from this memory (Byte)
system.mem_ctrls.bytesInstRead::cpu.inst       152384                       # Number of instructions bytes read from this memory (Byte)
system.mem_ctrls.bytesInstRead::total          152384                       # Number of instructions bytes read from this memory (Byte)
system.mem_ctrls.numReads::cpu.inst              2381                       # Number of read requests responded to by this memory (Count)
system.mem_ctrls.numReads::cpu.data              6108                       # Number of read requests responded to by this memory (Count)
system.mem_ctrls.numReads::cpu.dcache.prefetcher         3915                       # Number of read requests responded to by this memory (Count)
system.mem_ctrls.numReads::cpu.l2cache.prefetcher          363                       # Number of read requests responded to by this memory (Count)
system.mem_ctrls.numReads::total                12767                       # Number of read requests responded to by this memory (Count)
system.mem_ctrls.bwRead::cpu.inst          5595153295                       # Total read bandwidth from this memory ((Byte/Second))
system.mem_ctrls.bwRead::cpu.data         14353295392                       # Total read bandwidth from this memory ((Byte/Second))
system.mem_ctrls.bwRead::cpu.dcache.prefetcher   9199926565                       # Total read bandwidth from this memory ((Byte/Second))
system.mem_ctrls.bwRead::cpu.l2cache.prefetcher    853020011                       # Total read bandwidth from this memory ((Byte/Second))
system.mem_ctrls.bwRead::total            30001395263                       # Total read bandwidth from this memory ((Byte/Second))
system.mem_ctrls.bwInstRead::cpu.inst      5595153295                       # Instruction read bandwidth from this memory ((Byte/Second))
system.mem_ctrls.bwInstRead::total         5595153295                       # Instruction read bandwidth from this memory ((Byte/Second))
system.mem_ctrls.bwTotal::cpu.inst         5595153295                       # Total bandwidth to/from this memory ((Byte/Second))
system.mem_ctrls.bwTotal::cpu.data        14353295392                       # Total bandwidth to/from this memory ((Byte/Second))
system.mem_ctrls.bwTotal::cpu.dcache.prefetcher   9199926565                       # Total bandwidth to/from this memory ((Byte/Second))
system.mem_ctrls.bwTotal::cpu.l2cache.prefetcher    853020011                       # Total bandwidth to/from this memory ((Byte/Second))
system.mem_ctrls.bwTotal::total           30001395263                       # Total bandwidth to/from this memory ((Byte/Second))
system.mem_ctrls.power_state.pwrStateResidencyTicks::UNDEFINED   1315953000                       # Cumulative time (in ticks) in various power states (Tick)
system.membus.transDist::ReadResp                 333                       # Transaction distribution (Count)
system.membus.transDist::ReadExReq                  1                       # Transaction distribution (Count)
system.membus.transDist::ReadExResp                 1                       # Transaction distribution (Count)
system.membus.transDist::ReadSharedReq            332                       # Transaction distribution (Count)
system.membus.pktCount_system.l3.mem_side_port::system.mem_ctrls.port          667                       # Packet count per connected requestor and responder (Count)
system.membus.pktCount_system.l3.mem_side_port::total          667                       # Packet count per connected requestor and responder (Count)
system.membus.pktCount::total                     667                       # Packet count per connected requestor and responder (Count)
system.membus.pktSize_system.l3.mem_side_port::system.mem_ctrls.port        21376                       # Cumulative packet size per connected requestor and responder (Byte)
system.membus.pktSize_system.l3.mem_side_port::total        21376                       # Cumulative packet size per connected requestor and responder (Byte)
system.membus.pktSize::total                    21376                       # Cumulative packet size per connected requestor and responder (Byte)
system.membus.snoops                                0                       # Total snoops (Count)
system.membus.snoopTraffic                          0                       # Total snoop traffic (Byte)
system.membus.snoopFanout::samples                333                       # Request fanout histogram (Count)
system.membus.snoopFanout::mean                     0                       # Request fanout histogram (Count)
system.membus.snoopFanout::stdev                    0                       # Request fanout histogram (Count)
system.membus.snoopFanout::underflows               0      0.00%      0.00% # Request fanout histogram (Count)
system.membus.snoopFanout::0                      333    100.00%    100.00% # Request fanout histogram (Count)
system.membus.snoopFanout::1                        0      0.00%    100.00% # Request fanout histogram (Count)
system.membus.snoopFanout::overflows                0      0.00%    100.00% # Request fanout histogram (Count)
system.membus.snoopFanout::min_value                0                       # Request fanout histogram (Count)
system.membus.snoopFanout::max_value                0                       # Request fanout histogram (Count)
system.membus.snoopFanout::total                  333                       # Request fanout histogram (Count)
system.membus.power_state.pwrStateResidencyTicks::UNDEFINED   1315953000                       # Cumulative time (in ticks) in various power states (Tick)
system.membus.reqLayer2.occupancy              155871                       # Layer occupancy (ticks) (Tick)
system.membus.reqLayer2.utilization               0.0                       # Layer utilization (Ratio)
system.membus.respLayer1.occupancy             571938                       # Layer occupancy (ticks) (Tick)
system.membus.respLayer1.utilization              0.0                       # Layer utilization (Ratio)
system.membus.snoop_filter.totRequests            333                       # Total number of requests made to the snoop filter. (Count)
system.membus.snoop_filter.hitSingleRequests            0                       # Number of requests hitting in the snoop filter with a single holder of the requested data. (Count)
system.membus.snoop_filter.hitMultiRequests            0                       # Number of requests hitting in the snoop filter with multiple (>1) holders of the requested data. (Count)
system.membus.snoop_filter.totSnoops                0                       # Total number of snoops made to the snoop filter. (Count)
system.membus.snoop_filter.hitSingleSnoops            0                       # Number of snoops hitting in the snoop filter with a single holder of the requested data. (Count)
system.membus.snoop_filter.hitMultiSnoops            0                       # Number of snoops hitting in the snoop filter with multiple (>1) holders of the requested data. (Count)
system.tol3bus.transDist::ReadResp                479                       # Transaction distribution (Count)
system.tol3bus.transDist::CleanEvict              501                       # Transaction distribution (Count)
system.tol3bus.transDist::ReadExReq                17                       # Transaction distribution (Count)
system.tol3bus.transDist::ReadExResp               17                       # Transaction distribution (Count)
system.tol3bus.transDist::ReadSharedReq           479                       # Transaction distribution (Count)
system.tol3bus.pktCount_system.cpu.l2cache.mem_side_port::system.l3.cpu_side_port         1493                       # Packet count per connected requestor and responder (Count)
system.tol3bus.pktSize_system.cpu.l2cache.mem_side_port::system.l3.cpu_side_port        31744                       # Cumulative packet size per connected requestor and responder (Byte)
system.tol3bus.snoops                               0                       # Total snoops (Count)
system.tol3bus.snoopTraffic                         0                       # Total snoop traffic (Byte)
system.tol3bus.snoopFanout::samples               496                       # Request fanout histogram (Count)
system.tol3bus.snoopFanout::mean                    0                       # Request fanout histogram (Count)
system.tol3bus.snoopFanout::stdev                   0                       # Request fanout histogram (Count)
system.tol3bus.snoopFanout::underflows              0      0.00%      0.00% # Request fanout histogram (Count)
system.tol3bus.snoopFanout::0                     496    100.00%    100.00% # Request fanout histogram (Count)
system.tol3bus.snoopFanout::1                       0      0.00%    100.00% # Request fanout histogram (Count)
system.tol3bus.snoopFanout::overflows               0      0.00%    100.00% # Request fanout histogram (Count)
system.tol3bus.snoopFanout::min_value               0                       # Request fanout histogram (Count)
system.tol3bus.snoopFanout::max_value               0                       # Request fanout histogram (Count)
system.tol3bus.snoopFanout::total                 496                       # Request fanout histogram (Count)
system.tol3bus.power_state.pwrStateResidencyTicks::UNDEFINED   1315953000                       # Cumulative time (in ticks) in various power states (Tick)
system.tol3bus.reqLayer0.occupancy             498503                       # Layer occupancy (ticks) (Tick)
system.tol3bus.reqLayer0.utilization              0.0                       # Layer utilization (Ratio)
system.tol3bus.respLayer0.occupancy            744000                       # Layer occupancy (ticks) (Tick)
system.tol3bus.respLayer0.utilization             0.0                       # Layer utilization (Ratio)
system.tol3bus.snoop_filter.totRequests           997                       # Total number of requests made to the snoop filter. (Count)
system.tol3bus.snoop_filter.hitSingleRequests          501                       # Number of requests hitting in the snoop filter with a single holder of the requested data. (Count)
system.tol3bus.snoop_filter.hitMultiRequests            0                       # Number of requests hitting in the snoop filter with multiple (>1) holders of the requested data. (Count)
system.tol3bus.snoop_filter.totSnoops               0                       # Total number of snoops made to the snoop filter. (Count)
system.tol3bus.snoop_filter.hitSingleSnoops            0                       # Number of snoops hitting in the snoop filter with a single holder of the requested data. (Count)
system.tol3bus.snoop_filter.hitMultiSnoops            0                       # Number of snoops hitting in the snoop filter with multiple (>1) holders of the requested data. (Count)
system.voltage_domain.voltage                       1                       # Voltage in Volts (Volt)
system.workload.inst.arm                            0                       # number of arm instructions executed (Count)
system.workload.inst.quiesce                        0                       # number of quiesce instructions executed (Count)

---------- End Simulation Statistics   ----------
